xflr5 v6.42

 Calculated polar for: NACA 4418

 1 1 Reynolds number fixed          Mach number fixed         

 xtrf =   1.000 (top)        1.000 (bottom)
 Mach =   0.000     Re =     5.085 e 6     Ncrit =   9.000

  alpha     CL        CD       CDp       Cm    Top Xtr Bot Xtr   Cpmin    Chinge    XCp    
 ------- -------- --------- --------- -------- ------- ------- -------- --------- ---------
  -4.500  -0.0060   0.00642   0.00144  -0.0989  0.5936  0.0731  -1.5210   0.0000  -16.8223
  -4.000   0.0477   0.00652   0.00139  -0.0985  0.5664  0.0740  -1.3247   0.0000   2.3914
  -3.500   0.1007   0.00665   0.00137  -0.0980  0.5020  0.0748  -1.1906   0.0000   1.2536
  -2.500   0.2155   0.00656   0.00127  -0.0989  0.4913  0.0778  -0.9617   0.0000   0.7176
  -2.000   0.2666   0.00681   0.00132  -0.0981  0.4517  0.0843  -0.8580   0.0000   0.6230
  -1.500   0.3214   0.00684   0.00133  -0.0980  0.4117  0.0907  -0.8456   0.0000   0.5574
   0.000   0.4799   0.00735   0.00154  -0.0967  0.2986  0.1302  -0.9839   0.0000   0.4495
   0.500   0.5258   0.00788   0.00184  -0.0951  0.2475  0.1499  -1.0264   0.0000   0.4277
   1.000   0.5706   0.00846   0.00220  -0.0933  0.1782  0.1951  -1.0649   0.0000   0.4095
   1.500   0.6328   0.00818   0.00211  -0.0947  0.2181  0.2004  -1.1333   0.0000   0.3947
   2.000   0.6872   0.00826   0.00223  -0.0946  0.1980  0.2402  -1.1897   0.0000   0.3820
   2.500   0.7388   0.00831   0.00242  -0.0942  0.1837  0.2999  -1.2413   0.0000   0.3711
   3.000   0.7906   0.00866   0.00266  -0.0937  0.1591  0.3178  -1.3076   0.0000   0.3613
   4.500   0.9377   0.00987   0.00370  -0.0908  0.0875  0.4073  -1.5294   0.0000   0.3375
   5.000   0.9845   0.01013   0.00407  -0.0895  0.0735  0.4980  -1.6068   0.0000   0.3309
   5.500   1.0233   0.01058   0.00462  -0.0866  0.0491  0.5952  -1.7126   0.0000   0.3239
   6.000   1.0716   0.01075   0.00505  -0.0857  0.0457  0.7352  -1.8958   0.0000   0.3185
   6.500   1.1180   0.01102   0.00551  -0.0844  0.0424  0.8444  -2.0814   0.0000   0.3132
   7.000   1.1602   0.01131   0.00598  -0.0820  0.0394  0.9455  -2.2646   0.0000   0.3077
   7.500   1.2092   0.01177   0.00644  -0.0814  0.0361  1.0000  -2.4654   0.0000   0.3035
   8.000   1.2528   0.01228   0.00692  -0.0797  0.0326  1.0000  -2.6610   0.0000   0.2991
   8.500   1.2816   0.01302   0.00773  -0.0755  0.0278  1.0000  -2.8370   0.0000   0.2935
   9.000   1.3203   0.01372   0.00843  -0.0733  0.0252  1.0000  -3.0333   0.0000   0.2892
   9.500   1.3578   0.01455   0.00925  -0.0710  0.0249  1.0000  -3.2314   0.0000   0.2851
  10.500   1.4126   0.01723   0.01198  -0.0642  0.0244  1.0000  -3.5927   0.0000   0.2764
  11.000   1.4538   0.01809   0.01282  -0.0629  0.0241  1.0000  -3.8101   0.0000   0.2733
  11.500   1.4943   0.01898   0.01370  -0.0615  0.0237  1.0000  -4.0304   0.0000   0.2702
  12.000   1.5367   0.01974   0.01449  -0.0605  0.0245  1.0000  -4.2504   0.0000   0.2674
  12.500   1.5745   0.02076   0.01551  -0.0590  0.0245  1.0000  -4.4710   0.0000   0.2645
  13.000   1.6070   0.02204   0.01681  -0.0569  0.0243  1.0000  -4.6825   0.0000   0.2615
  13.500   1.5993   0.02598   0.02087  -0.0518  0.0242  1.0000  -4.7897   0.0000   0.2572
  14.000   1.6325   0.02741   0.02232  -0.0503  0.0241  1.0000  -5.0079   0.0000   0.2545
  14.500   1.6658   0.02890   0.02383  -0.0489  0.0238  1.0000  -5.2298   0.0000   0.2520
  15.000   1.6973   0.03060   0.02555  -0.0475  0.0236  1.0000  -5.4500   0.0000   0.2495
  15.500   1.7230   0.03297   0.02795  -0.0460  0.0232  1.0000  -5.6562   0.0000   0.2471
  16.000   1.6999   0.04033   0.03548  -0.0432  0.0230  1.0000  -5.7150   0.0000   0.2443
  16.500   1.7249   0.04266   0.03782  -0.0418  0.0222  1.0000  -5.9227   0.0000   0.2420
  17.000   1.7458   0.04548   0.04062  -0.0405  0.0204  1.0000  -6.1198   0.0000   0.2397
  17.500   1.6883   0.05748   0.05289  -0.0392  0.0201  1.0000  -6.0556   0.0000   0.2381
  18.000   1.7026   0.06080   0.05619  -0.0380  0.0182  1.0000  -6.2281   0.0000   0.2360
  18.500   1.7104   0.06445   0.05981  -0.0367  0.0125  1.0000  -6.3832   0.0000   0.2338
  19.000   1.7256   0.06789   0.06330  -0.0361  0.0123  1.0000  -6.5589   0.0000   0.2319
  20.000   1.6393   0.09045   0.08626  -0.0382  0.0123  1.0000  -6.4752   0.0000   0.2312
  20.500   1.6601   0.09334   0.08917  -0.0382  0.0122  1.0000  -6.6674   0.0000   0.2295
  21.000   1.6798   0.09633   0.09220  -0.0384  0.0121  1.0000  -6.8566   0.0000   0.2279
  21.500   1.6935   0.10008   0.09600  -0.0388  0.0120  1.0000  -7.0228   0.0000   0.2266
  22.000   1.5561   0.12509   0.12149  -0.0469  0.0121  1.0000  -6.5533   0.0000   0.2318
  22.500   1.5767   0.12773   0.12414  -0.0478  0.0120  1.0000  -6.7390   0.0000   0.2305
  23.000   1.5971   0.13030   0.12674  -0.0487  0.0119  1.0000  -6.9255   0.0000   0.2291
  23.500   1.6170   0.13248   0.12893  -0.0497  0.0119  1.0000  -7.1109   0.0000   0.2278
  24.000   1.6354   0.13465   0.13114  -0.0509  0.0118  1.0000  -7.2904   0.0000   0.2266
  24.500   1.6468   0.13793   0.13447  -0.0527  0.0118  1.0000  -7.4373   0.0000   0.2259
  25.000   1.6104   0.14878   0.14552  -0.0584  0.0117  1.0000  -7.3439   0.0000   0.2286


