xflr5 v6.42

 Calculated polar for: NACA 4412

 1 1 Reynolds number fixed          Mach number fixed         

 xtrf =   1.000 (top)        1.000 (bottom)
 Mach =   0.000     Re =     5.085 e 6     Ncrit =   9.000

  alpha     CL        CD       CDp       Cm    Top Xtr Bot Xtr   Cpmin    Chinge    XCp    
 ------- -------- --------- --------- -------- ------- ------- -------- --------- ---------
  -3.500   0.0881   0.00685   0.00120  -0.0982  0.3942  0.0249  -1.7715   0.0000   1.3824
  -3.000   0.1282   0.00836   0.00157  -0.0958  0.0559  0.0250  -1.5875   0.0000   1.0082
  -2.500   0.1836   0.00836   0.00151  -0.0962  0.0474  0.0251  -1.3696   0.0000   0.7799
  -2.000   0.2390   0.00838   0.00149  -0.0965  0.0449  0.0252  -1.1582   0.0000   0.6574
  -1.500   0.2944   0.00842   0.00150  -0.0969  0.0426  0.0253  -0.9552   0.0000   0.5811
  -1.000   0.3498   0.00848   0.00155  -0.0973  0.0407  0.0280  -0.7629   0.0000   0.5289
  -0.500   0.4050   0.00855   0.00161  -0.0976  0.0389  0.0296  -0.7150   0.0000   0.4909
   0.000   0.4602   0.00863   0.00168  -0.0980  0.0373  0.0309  -0.7576   0.0000   0.4621
   0.500   0.5153   0.00872   0.00176  -0.0983  0.0358  0.0321  -0.8032   0.0000   0.4393
   1.000   0.5704   0.00882   0.00187  -0.0986  0.0382  0.0376  -0.8490   0.0000   0.4209
   1.500   0.6254   0.00892   0.00197  -0.0989  0.0389  0.0403  -0.8974   0.0000   0.4056
   2.000   0.6801   0.00904   0.00208  -0.0991  0.0390  0.0434  -0.9512   0.0000   0.3928
   2.500   0.7347   0.00917   0.00222  -0.0994  0.0386  0.0469  -1.0132   0.0000   0.3817
   3.000   0.7891   0.00928   0.00236  -0.0996  0.0377  0.0722  -1.1901   0.0000   0.3721
   3.500   0.8433   0.00945   0.00252  -0.0997  0.0363  0.0753  -1.3814   0.0000   0.3637
   4.000   0.8973   0.00959   0.00270  -0.0999  0.0342  0.0978  -1.5795   0.0000   0.3562
   4.500   0.9510   0.00972   0.00291  -0.1000  0.0310  0.1599  -1.7841   0.0000   0.3494
   5.000   1.0045   0.00982   0.00316  -0.1000  0.0251  0.2467  -1.9902   0.0000   0.3433
   6.000   1.1079   0.00909   0.00390  -0.0999  0.0250  1.0000  -2.4306   0.0000   0.3326
   6.500   1.1604   0.00941   0.00419  -0.0997  0.0248  1.0000  -2.6639   0.0000   0.3278
   7.000   1.2125   0.00975   0.00450  -0.0995  0.0247  1.0000  -2.9038   0.0000   0.3232
   7.500   1.2640   0.01011   0.00484  -0.0992  0.0245  1.0000  -3.1506   0.0000   0.3189
   8.000   1.3149   0.01050   0.00520  -0.0988  0.0242  1.0000  -3.4037   0.0000   0.3148
   8.500   1.3566   0.01157   0.00627  -0.0967  0.0110  1.0000  -3.6767   0.0000   0.3102
   9.000   1.4031   0.01220   0.00692  -0.0955  0.0102  1.0000  -3.9440   0.0000   0.3062
   9.500   1.4488   0.01280   0.00754  -0.0942  0.0099  1.0000  -4.2091   0.0000   0.3023
  10.000   1.4930   0.01344   0.00819  -0.0926  0.0097  1.0000  -4.4742   0.0000   0.2985
  10.500   1.5329   0.01413   0.00889  -0.0902  0.0096  1.0000  -4.7327   0.0000   0.2945
  11.000   1.5730   0.01465   0.00940  -0.0879  0.0099  1.0000  -4.9803   0.0000   0.2907
  11.500   1.6093   0.01544   0.01022  -0.0851  0.0098  1.0000  -5.2370   0.0000   0.2867
  12.000   1.6399   0.01635   0.01117  -0.0813  0.0097  1.0000  -5.7088   0.0000   0.2826
  12.500   1.6602   0.01764   0.01252  -0.0763  0.0096  1.0000  -6.1482   0.0000   0.2780
  13.000   1.6864   0.01904   0.01398  -0.0726  0.0095  1.0000  -6.6348   0.0000   0.2741
  13.500   1.6978   0.02127   0.01630  -0.0674  0.0094  1.0000  -7.0427   0.0000   0.2697
  14.000   1.7256   0.02286   0.01795  -0.0645  0.0093  1.0000  -7.5638   0.0000   0.2664
  14.500   1.7512   0.02460   0.01977  -0.0616  0.0092  1.0000  -8.0847   0.0000   0.2631
  15.000   1.7682   0.02674   0.02199  -0.0579  0.0091  1.0000  -8.5596   0.0000   0.2596
  15.500   1.7622   0.03118   0.02658  -0.0537  0.0090  1.0000  -8.8774   0.0000   0.2561
  16.000   1.7783   0.03415   0.02965  -0.0511  0.0090  1.0000  -9.3578   0.0000   0.2533
  16.500   1.7848   0.03826   0.03389  -0.0486  0.0089  1.0000  -9.7722   0.0000   0.2506
  17.000   1.7698   0.04525   0.04105  -0.0470  0.0089  1.0000  -10.0175   0.0000   0.2485
  17.500   1.7502   0.05241   0.04851  -0.0445  0.0087  1.0000  -10.1833   0.0000   0.2461
  18.000   1.7108   0.06286   0.05920  -0.0446  0.0086  1.0000  -10.1974   0.0000   0.2454
  18.500   1.6889   0.07076   0.06733  -0.0439  0.0086  1.0000  -10.3350   0.0000   0.2440
  19.000   1.6301   0.08587   0.08270  -0.0477  0.0086  1.0000  -10.1449   0.0000   0.2458
  19.500   1.6060   0.09482   0.09194  -0.0479  0.0087  1.0000  -10.1970   0.0000   0.2451


