xflr5 v6.42

 Calculated polar for: NACA 6412

 1 1 Reynolds number fixed          Mach number fixed         

 xtrf =   1.000 (top)        1.000 (bottom)
 Mach =   0.000     Re =     5.085 e 6     Ncrit =   9.000

  alpha     CL        CD       CDp       Cm    Top Xtr Bot Xtr   Cpmin    Chinge    XCp    
 ------- -------- --------- --------- -------- ------- ------- -------- --------- ---------
  -5.000   0.0664   0.00606   0.00146  -0.1336  0.6569  0.0278  -3.0491   0.0000   2.3059
  -4.500   0.1184   0.00595   0.00133  -0.1325  0.6433  0.0309  -2.6910   0.0000   1.3913
  -4.000   0.1685   0.00599   0.00125  -0.1310  0.6063  0.0317  -2.3540   0.0000   1.0415
  -3.500   0.2212   0.00595   0.00116  -0.1301  0.5942  0.0319  -2.0260   0.0000   0.8471
  -3.000   0.2715   0.00600   0.00109  -0.1287  0.5640  0.0321  -1.7227   0.0000   0.7300
  -2.500   0.3239   0.00586   0.00100  -0.1278  0.5512  0.0476  -1.4330   0.0000   0.6483
  -2.000   0.3749   0.00587   0.00096  -0.1266  0.5351  0.0523  -1.1799   0.0000   0.5899
  -1.500   0.4262   0.00593   0.00094  -0.1254  0.5077  0.0616  -1.0026   0.0000   0.5454
  -1.000   0.4790   0.00586   0.00091  -0.1246  0.4979  0.0749  -0.8407   0.0000   0.5103
  -0.500   0.5312   0.00590   0.00092  -0.1237  0.4870  0.0836  -0.8820   0.0000   0.4821
   0.000   0.5824   0.00592   0.00094  -0.1226  0.4738  0.1042  -0.9227   0.0000   0.4590
   0.500   0.6348   0.00590   0.00098  -0.1219  0.4568  0.1357  -0.9642   0.0000   0.4397
   1.000   0.6887   0.00589   0.00102  -0.1214  0.4482  0.1607  -1.0069   0.0000   0.4234
   1.500   0.7435   0.00587   0.00106  -0.1211  0.4475  0.1778  -1.0504   0.0000   0.4094
   2.000   0.7984   0.00584   0.00113  -0.1209  0.4464  0.2116  -1.1004   0.0000   0.3973
   2.500   0.8533   0.00584   0.00122  -0.1208  0.4435  0.2450  -1.1509   0.0000   0.3868
   3.000   0.9063   0.00595   0.00135  -0.1203  0.4312  0.2891  -1.2005   0.0000   0.3774
   3.500   0.9620   0.00601   0.00153  -0.1206  0.4140  0.3921  -1.2552   0.0000   0.3694
   4.000   1.0446   0.00574   0.00182  -0.1274  0.3944  0.6973  -1.3328   0.0000   0.3653
   4.500   1.1751   0.00588   0.00228  -0.1454  0.3484  0.9999  -1.4456   0.0000   0.3664
   5.000   1.2120   0.00651   0.00264  -0.1417  0.2993  0.9999  -1.5017   0.0000   0.3589
   5.500   1.2617   0.00666   0.00283  -0.1405  0.2928  0.9999  -1.5988   0.0000   0.3527
   6.000   1.2989   0.00736   0.00328  -0.1370  0.2485  0.9999  -1.7568   0.0000   0.3461
   6.500   1.3381   0.00809   0.00378  -0.1340  0.2100  0.9999  -1.9689   0.0000   0.3400
   7.000   1.3753   0.00891   0.00435  -0.1308  0.1670  0.9999  -2.1842   0.0000   0.3342
   7.500   1.4092   0.00974   0.00496  -0.1269  0.1280  0.9999  -2.3985   0.0000   0.3284
   8.000   1.4438   0.01060   0.00563  -0.1233  0.0963  0.9999  -2.6214   0.0000   0.3230
   8.500   1.4804   0.01141   0.00630  -0.1203  0.0733  0.9999  -2.9045   0.0000   0.3181
   9.000   1.5144   0.01240   0.00714  -0.1170  0.0492  0.9999  -3.2324   0.0000   0.3132
   9.500   1.5505   0.01323   0.00793  -0.1141  0.0348  0.9999  -3.5776   0.0000   0.3087
  10.000   1.5837   0.01423   0.00886  -0.1110  0.0271  0.9999  -3.9269   0.0000   0.3043
  10.500   1.6170   0.01525   0.00983  -0.1080  0.0179  0.9999  -4.2902   0.0000   0.3001
  11.000   1.6527   0.01621   0.01079  -0.1056  0.0162  0.9999  -4.6783   0.0000   0.2963
  11.500   1.6814   0.01753   0.01210  -0.1024  0.0136  0.9999  -5.0479   0.0000   0.2924
  12.000   1.7113   0.01882   0.01336  -0.0995  0.0111  0.9999  -5.4329   0.0000   0.2886
  12.500   1.7357   0.02031   0.01488  -0.0961  0.0087  0.9999  -5.8020   0.0000   0.2848
  13.000   1.7657   0.02176   0.01635  -0.0936  0.0065  0.9999  -6.2011   0.0000   0.2815
  13.500   1.7896   0.02371   0.01837  -0.0909  0.0064  0.9999  -6.5978   0.0000   0.2781
  14.000   1.8170   0.02553   0.02024  -0.0886  0.0064  0.9999  -7.0156   0.0000   0.2750
  14.500   1.8354   0.02814   0.02292  -0.0859  0.0063  0.9999  -7.3934   0.0000   0.2719
  15.000   1.8584   0.03043   0.02527  -0.0837  0.0063  0.9999  -7.8041   0.0000   0.2690
  15.500   1.8705   0.03377   0.02870  -0.0812  0.0062  0.9999  -8.1605   0.0000   0.2662
  16.000   1.8886   0.03654   0.03153  -0.0791  0.0062  0.9999  -8.5583   0.0000   0.2635
  16.500   1.8920   0.04061   0.03571  -0.0766  0.0061  0.9999  -8.8743   0.0000   0.2608
  17.000   1.9041   0.04394   0.03913  -0.0747  0.0061  0.9999  -9.2472   0.0000   0.2583
  17.500   1.9040   0.04915   0.04445  -0.0732  0.0060  0.9999  -9.5463   0.0000   0.2562
  18.000   1.9020   0.05491   0.05034  -0.0721  0.0060  0.9999  -9.8336   0.0000   0.2543
  18.500   1.9065   0.05997   0.05553  -0.0712  0.0060  0.9999  -10.1558   0.0000   0.2525
  19.000   1.8940   0.06751   0.06322  -0.0710  0.0060  0.9999  -10.3704   0.0000   0.2512
  19.500   1.8973   0.07272   0.06853  -0.0706  0.0059  0.9999  -10.6960   0.0000   0.2495
  20.000   1.8748   0.08163   0.07762  -0.0712  0.0059  0.9999  -10.8343   0.0000   0.2488
  20.500   1.8765   0.08688   0.08297  -0.0714  0.0059  0.9999  -11.1490   0.0000   0.2474
  21.000   1.8422   0.09712   0.09340  -0.0733  0.0059  0.9999  -11.1833   0.0000   0.2477
  21.500   1.8456   0.10176   0.09813  -0.0739  0.0058  0.9999  -11.5073   0.0000   0.2465
  22.000   1.8414   0.10636   0.10284  -0.0749  0.0058  0.9999  -11.7700   0.0000   0.2456
  22.500   1.8058   0.11616   0.11284  -0.0785  0.0058  0.9999  -11.7605   0.0000   0.2468
  23.000   1.8109   0.12061   0.11737  -0.0800  0.0057  0.9999  -12.0927   0.0000   0.2459
  23.500   1.8054   0.12701   0.12388  -0.0825  0.0057  0.9999  -12.3313   0.0000   0.2458
  24.000   1.7716   0.13857   0.13563  -0.0877  0.0057  0.9999  -12.2979   0.0000   0.2480
  24.500   1.7766   0.14380   0.14093  -0.0899  0.0056  0.9999  -12.6254   0.0000   0.2474


