xflr5 v6.42

 Calculated polar for: NACA 4421

 1 1 Reynolds number fixed          Mach number fixed         

 xtrf =   1.000 (top)        1.000 (bottom)
 Mach =   0.000     Re =     5.085 e 6     Ncrit =   9.000

  alpha     CL        CD       CDp       Cm    Top Xtr Bot Xtr   Cpmin    Chinge    XCp    
 ------- -------- --------- --------- -------- ------- ------- -------- --------- ---------
  -5.000  -0.0701   0.00688   0.00173  -0.0953  0.5502  0.1011  -1.5113   0.0000  -1.1974
  -4.500  -0.0139   0.00686   0.00166  -0.0953  0.5265  0.1074  -1.3651   0.0000  -6.9964
  -4.000   0.0428   0.00680   0.00160  -0.0955  0.5041  0.1169  -1.2636   0.0000   2.5885
  -3.000   0.1571   0.00656   0.00148  -0.0961  0.4969  0.1368  -1.0731   0.0000   0.8824
  -2.500   0.2139   0.00643   0.00141  -0.0963  0.4955  0.1471  -0.9802   0.0000   0.7121
  -2.000   0.2640   0.00664   0.00146  -0.0952  0.4667  0.1541  -0.9130   0.0000   0.6175
  -1.500   0.3126   0.00677   0.00152  -0.0939  0.4000  0.1881  -0.9508   0.0000   0.5538
  -0.500   0.4235   0.00655   0.00151  -0.0940  0.3944  0.2478  -1.0358   0.0000   0.4707
   0.000   0.4803   0.00660   0.00154  -0.0942  0.3913  0.2499  -1.0832   0.0000   0.4433
   0.500   0.5313   0.00691   0.00169  -0.0934  0.3677  0.2506  -1.1379   0.0000   0.4216
   1.000   0.5799   0.00733   0.00191  -0.0921  0.3091  0.2520  -1.1909   0.0000   0.4035
   1.500   0.6376   0.00729   0.00194  -0.0926  0.3246  0.2683  -1.2510   0.0000   0.3889
   2.000   0.6916   0.00735   0.00202  -0.0924  0.2973  0.2849  -1.3090   0.0000   0.3763
   2.500   0.7357   0.00761   0.00225  -0.0903  0.2823  0.3233  -1.3621   0.0000   0.3645
   3.000   0.7796   0.00783   0.00254  -0.0884  0.2587  0.3985  -1.4239   0.0000   0.3542
   3.500   0.8253   0.00832   0.00289  -0.0867  0.2308  0.4399  -1.4877   0.0000   0.3451
   4.000   0.8756   0.00857   0.00321  -0.0861  0.1993  0.4953  -1.5554   0.0000   0.3375
   4.500   0.9293   0.00876   0.00344  -0.0860  0.1952  0.5451  -1.6271   0.0000   0.3310
   5.000   0.9672   0.00957   0.00412  -0.0833  0.1438  0.5956  -1.6843   0.0000   0.3237
   5.500   1.0078   0.01024   0.00474  -0.0810  0.1183  0.6633  -1.7676   0.0000   0.3171
   6.000   1.0549   0.01059   0.00515  -0.0799  0.0985  0.6981  -1.8649   0.0000   0.3117
   6.500   1.0826   0.01144   0.00596  -0.0754  0.0892  0.7301  -1.9447   0.0000   0.3047
   7.000   1.1151   0.01215   0.00675  -0.0719  0.0756  0.7869  -2.0440   0.0000   0.2987
   7.500   1.1547   0.01271   0.00744  -0.0698  0.0731  0.8661  -2.1543   0.0000   0.2937
   8.500   1.1931   0.01577   0.01063  -0.0600  0.0474  1.0000  -2.3422   0.0000   0.2815
   9.000   1.2545   0.01557   0.01064  -0.0614  0.0735  1.0000  -2.5613   0.0000   0.2794
  10.000   1.3207   0.01831   0.01308  -0.0567  0.0388  1.0000  -2.8945   0.0000   0.2715
  10.500   1.3604   0.01930   0.01402  -0.0554  0.0336  1.0000  -3.0800   0.0000   0.2683
  11.000   1.3976   0.02042   0.01513  -0.0539  0.0297  1.0000  -3.2640   0.0000   0.2652
  11.500   1.3874   0.02440   0.01922  -0.0482  0.0277  1.0000  -3.3495   0.0000   0.2600
  12.000   1.4240   0.02560   0.02041  -0.0470  0.0252  1.0000  -3.5361   0.0000   0.2573
  12.500   1.4622   0.02675   0.02156  -0.0459  0.0252  1.0000  -3.7227   0.0000   0.2547
  13.000   1.4997   0.02806   0.02286  -0.0450  0.0251  1.0000  -3.9175   0.0000   0.2523
  13.500   1.5355   0.02956   0.02437  -0.0441  0.0251  1.0000  -4.1120   0.0000   0.2499
  14.000   1.5651   0.03166   0.02649  -0.0429  0.0250  1.0000  -4.2955   0.0000   0.2475
  14.500   1.5388   0.03913   0.03414  -0.0395  0.0250  1.0000  -4.3421   0.0000   0.2442
  15.000   1.5711   0.04100   0.03602  -0.0387  0.0249  1.0000  -4.5383   0.0000   0.2421
  15.500   1.6030   0.04288   0.03791  -0.0380  0.0248  1.0000  -4.7337   0.0000   0.2400
  16.000   1.6331   0.04493   0.03999  -0.0372  0.0248  1.0000  -4.9265   0.0000   0.2379
  16.500   1.6553   0.04781   0.04291  -0.0364  0.0247  1.0000  -5.1001   0.0000   0.2359
  17.000   1.5949   0.05968   0.05504  -0.0344  0.0247  1.0000  -5.0404   0.0000   0.2337
  17.500   1.6203   0.06180   0.05717  -0.0337  0.0247  1.0000  -5.2232   0.0000   0.2317
  18.000   1.6456   0.06397   0.05936  -0.0331  0.0246  1.0000  -5.4076   0.0000   0.2298
  18.500   1.6688   0.06649   0.06192  -0.0327  0.0245  1.0000  -5.5879   0.0000   0.2280
  19.500   1.5613   0.09076   0.08664  -0.0335  0.0245  1.0000  -5.4616   0.0000   0.2264
  20.000   1.5864   0.09318   0.08911  -0.0336  0.0241  1.0000  -5.6538   0.0000   0.2248
  20.500   1.6117   0.09554   0.09149  -0.0338  0.0239  1.0000  -5.8418   0.0000   0.2233
  21.000   1.6369   0.09789   0.09386  -0.0341  0.0236  1.0000  -6.0311   0.0000   0.2217
  21.500   1.6594   0.10054   0.09654  -0.0345  0.0234  1.0000  -6.2124   0.0000   0.2203
  22.000   1.4974   0.12755   0.12409  -0.0418  0.0236  1.0000  -5.7199   0.0000   0.2251
  22.500   1.5209   0.12979   0.12633  -0.0427  0.0234  1.0000  -5.8985   0.0000   0.2238
  23.000   1.5445   0.13166   0.12821  -0.0436  0.0230  1.0000  -6.0790   0.0000   0.2225
  23.500   1.5677   0.13329   0.12984  -0.0447  0.0226  1.0000  -6.2595   0.0000   0.2212
  24.000   1.5890   0.13517   0.13171  -0.0459  0.0216  1.0000  -6.4355   0.0000   0.2200
  24.500   1.6066   0.13757   0.13409  -0.0473  0.0201  1.0000  -6.5978   0.0000   0.2190
  25.000   1.6150   0.14134   0.13787  -0.0494  0.0186  1.0000  -6.7202   0.0000   0.2185


