xflr5 v6.42

 Calculated polar for: NACA 2412

 1 1 Reynolds number fixed          Mach number fixed         

 xtrf =   1.000 (top)        1.000 (bottom)
 Mach =   0.000     Re =     5.085 e 6     Ncrit =   9.000

  alpha     CL        CD       CDp       Cm    Top Xtr Bot Xtr   Cpmin    Chinge    XCp    
 ------- -------- --------- --------- -------- ------- ------- -------- --------- ---------
  -4.000  -0.2030   0.00717   0.00138  -0.0486  0.3939  0.0246  -1.9225   0.0000   0.0024
  -3.500  -0.1565   0.00816   0.00145  -0.0474  0.0949  0.0247  -1.7209   0.0000  -0.0623
  -3.000  -0.1013   0.00816   0.00138  -0.0477  0.0741  0.0248  -1.5004   0.0000  -0.2324
  -2.500  -0.0459   0.00818   0.00133  -0.0479  0.0495  0.0249  -1.2864   0.0000  -0.8137
  -2.000   0.0097   0.00816   0.00129  -0.0483  0.0464  0.0250  -1.0795   0.0000   5.2756
  -1.500   0.0655   0.00817   0.00128  -0.0486  0.0436  0.0279  -0.8831   0.0000   1.0001
  -1.000   0.1212   0.00819   0.00129  -0.0490  0.0412  0.0299  -0.6941   0.0000   0.6565
  -0.500   0.1768   0.00822   0.00131  -0.0493  0.0391  0.0313  -0.5144   0.0000   0.5292
   0.000   0.2325   0.00826   0.00135  -0.0496  0.0371  0.0325  -0.5594   0.0000   0.4629
   0.500   0.2881   0.00830   0.00140  -0.0500  0.0371  0.0358  -0.6114   0.0000   0.4221
   1.000   0.3437   0.00836   0.00145  -0.0503  0.0373  0.0384  -0.6696   0.0000   0.3945
   1.500   0.3992   0.00842   0.00151  -0.0506  0.0369  0.0412  -0.7327   0.0000   0.3744
   2.000   0.4546   0.00850   0.00159  -0.0509  0.0362  0.0443  -0.9034   0.0000   0.3592
   2.500   0.5099   0.00859   0.00169  -0.0512  0.0349  0.0480  -1.0915   0.0000   0.3472
   3.000   0.5650   0.00865   0.00179  -0.0514  0.0331  0.0733  -1.2874   0.0000   0.3374
   3.500   0.6199   0.00873   0.00191  -0.0517  0.0301  0.0914  -1.4912   0.0000   0.3293
   4.000   0.6738   0.00855   0.00205  -0.0518  0.0250  0.2481  -1.6957   0.0000   0.3224
   4.500   0.7279   0.00852   0.00222  -0.0520  0.0249  0.3449  -1.9123   0.0000   0.3164
   5.000   0.7812   0.00836   0.00244  -0.0521  0.0248  0.4972  -2.1337   0.0000   0.3112
   5.500   0.8340   0.00824   0.00271  -0.0520  0.0247  0.6743  -2.3603   0.0000   0.3064
   6.000   0.8903   0.00790   0.00305  -0.0526  0.0246  0.9922  -2.6181   0.0000   0.3026
   6.500   0.9529   0.00821   0.00332  -0.0545  0.0245  0.9990  -2.8900   0.0000   0.3002
   7.000   1.0107   0.00852   0.00361  -0.0555  0.0243  1.0000  -3.1613   0.0000   0.2972
   7.500   1.0567   0.00880   0.00388  -0.0538  0.0241  1.0000  -3.4126   0.0000   0.2926
   8.000   1.1068   0.00913   0.00418  -0.0531  0.0238  1.0000  -3.6827   0.0000   0.2890
   8.500   1.1517   0.01010   0.00514  -0.0515  0.0108  1.0000  -3.9882   0.0000   0.2852
   9.000   1.2019   0.01060   0.00565  -0.0509  0.0104  1.0000  -4.2781   0.0000   0.2821
   9.500   1.2520   0.01111   0.00616  -0.0504  0.0102  1.0000  -4.5716   0.0000   0.2792
  10.000   1.3014   0.01164   0.00670  -0.0497  0.0100  1.0000  -4.8696   0.0000   0.2764
  10.500   1.3501   0.01222   0.00728  -0.0490  0.0099  1.0000  -5.1718   0.0000   0.2737
  11.000   1.3997   0.01265   0.00771  -0.0484  0.0101  1.0000  -5.4710   0.0000   0.2712
  11.500   1.4463   0.01330   0.00838  -0.0474  0.0100  1.0000  -6.0461   0.0000   0.2685
  12.000   1.4913   0.01401   0.00912  -0.0461  0.0099  1.0000  -6.6398   0.0000   0.2658
  12.500   1.5342   0.01480   0.00994  -0.0445  0.0098  1.0000  -7.2434   0.0000   0.2630
  13.000   1.5744   0.01566   0.01085  -0.0425  0.0097  1.0000  -7.8510   0.0000   0.2600
  13.500   1.6071   0.01663   0.01187  -0.0391  0.0096  1.0000  -8.4287   0.0000   0.2565
  14.000   1.6372   0.01773   0.01304  -0.0356  0.0095  1.0000  -9.0053   0.0000   0.2529
  14.500   1.6564   0.01909   0.01448  -0.0306  0.0094  1.0000  -9.5182   0.0000   0.2487
  15.000   1.6767   0.02074   0.01623  -0.0265  0.0093  1.0000  -10.0479   0.0000   0.2450
  15.500   1.6883   0.02313   0.01872  -0.0222  0.0093  1.0000  -10.5196   0.0000   0.2413
  16.000   1.6963   0.02624   0.02206  -0.0181  0.0090  1.0000  -10.9405   0.0000   0.2377
  16.500   1.6865   0.03065   0.02665  -0.0140  0.0090  1.0000  -11.2330   0.0000   0.2342
  17.000   1.6889   0.03482   0.03100  -0.0114  0.0089  1.0000  -11.6187   0.0000   0.2314
  17.500   1.6695   0.04203   0.03843  -0.0103  0.0089  1.0000  -11.8078   0.0000   0.2296
  18.000   1.6571   0.04872   0.04533  -0.0095  0.0088  1.0000  -12.0435   0.0000   0.2278
  18.500   1.6203   0.05931   0.05618  -0.0114  0.0088  1.0000  -12.0341   0.0000   0.2277
  19.000   1.5620   0.07338   0.07054  -0.0158  0.0089  1.0000  -11.7908   0.0000   0.2293
  19.500   1.5188   0.08559   0.08305  -0.0189  0.0089  1.0000  -11.6474   0.0000   0.2303
  20.000   1.4500   0.10387   0.10163  -0.0270  0.0089  1.0000  -11.1906   0.0000   0.2350
  20.500   1.3765   0.12371   0.12184  -0.0364  0.0090  1.0000  -10.5742   0.0000   0.2416
  21.000   1.2969   0.14618   0.14463  -0.0493  0.0091  1.0000  -9.7882   0.0000   0.2522
  21.500   1.2357   0.16537   0.16400  -0.0619  0.0091  1.0000  -9.1491   0.0000   0.2635


