xflr5 v6.42

 Calculated polar for: NACA 4415

 1 1 Reynolds number fixed          Mach number fixed         

 xtrf =   1.000 (top)        1.000 (bottom)
 Mach =   0.000     Re =     5.085 e 6     Ncrit =   9.000

  alpha     CL        CD       CDp       Cm    Top Xtr Bot Xtr   Cpmin    Chinge    XCp    
 ------- -------- --------- --------- -------- ------- ------- -------- --------- ---------
  -5.000  -0.0725   0.00623   0.00147  -0.1027  0.6564  0.0663  -2.0087   0.0000  -1.2172
  -4.500  -0.0212   0.00616   0.00136  -0.1015  0.6292  0.0774  -1.7203   0.0000  -4.6776
  -4.000   0.0310   0.00610   0.00126  -0.1005  0.6093  0.0839  -1.4417   0.0000   3.5787
  -3.500   0.0841   0.00600   0.00116  -0.0997  0.5917  0.0969  -1.2192   0.0000   1.4625
  -3.000   0.1356   0.00597   0.00110  -0.0986  0.5663  0.1124  -1.0493   0.0000   0.9906
  -2.500   0.1885   0.00591   0.00105  -0.0978  0.5515  0.1238  -0.8837   0.0000   0.7759
  -2.000   0.2409   0.00587   0.00101  -0.0968  0.5317  0.1419  -0.7607   0.0000   0.6558
  -1.500   0.2934   0.00580   0.00098  -0.0959  0.5186  0.1667  -0.7280   0.0000   0.5787
  -1.000   0.3462   0.00582   0.00097  -0.0951  0.4988  0.1831  -0.7686   0.0000   0.5247
  -0.500   0.3990   0.00582   0.00098  -0.0943  0.4856  0.2014  -0.8108   0.0000   0.4851
   0.000   0.4513   0.00584   0.00100  -0.0933  0.4663  0.2238  -0.8552   0.0000   0.4547
   0.500   0.5041   0.00581   0.00102  -0.0926  0.4568  0.2557  -0.9002   0.0000   0.4307
   1.000   0.5557   0.00586   0.00108  -0.0915  0.4388  0.2826  -0.9485   0.0000   0.4110
   1.500   0.6077   0.00588   0.00114  -0.0906  0.4242  0.3169  -1.0000   0.0000   0.3947
   2.000   0.6570   0.00594   0.00123  -0.0892  0.4002  0.3661  -1.0552   0.0000   0.3807
   3.500   0.8005   0.00576   0.00158  -0.0841  0.3608  0.6588  -1.2572   0.0000   0.3482
   4.000   0.8458   0.00584   0.00176  -0.0818  0.3390  0.7352  -1.3426   0.0000   0.3393
   4.500   0.8802   0.00573   0.00194  -0.0771  0.3253  0.8776  -1.4193   0.0000   0.3295
   5.000   1.0090   0.00609   0.00239  -0.0939  0.2992  0.9884  -1.5864   0.0000   0.3344
   5.500   1.0689   0.00649   0.00266  -0.0951  0.2745  0.9948  -1.7020   0.0000   0.3297
   6.000   1.1313   0.00727   0.00314  -0.0972  0.2213  0.9981  -1.8224   0.0000   0.3260
   6.500   1.2002   0.00789   0.00357  -0.1007  0.1892  1.0000  -1.9528   0.0000   0.3233
   7.000   1.2327   0.00838   0.00394  -0.0960  0.1653  1.0000  -2.0643   0.0000   0.3166
   7.500   1.2601   0.00883   0.00428  -0.0902  0.1452  1.0000  -2.2122   0.0000   0.3096
   8.000   1.2868   0.00921   0.00460  -0.0843  0.1347  1.0000  -2.3824   0.0000   0.3028
   8.500   1.3210   0.00958   0.00493  -0.0801  0.1232  1.0000  -2.5789   0.0000   0.2971
   9.000   1.3559   0.01002   0.00533  -0.0762  0.1157  1.0000  -2.7819   0.0000   0.2919
   9.500   1.3908   0.01054   0.00580  -0.0725  0.1031  1.0000  -2.9890   0.0000   0.2871
  10.000   1.4288   0.01102   0.00626  -0.0695  0.0984  1.0000  -3.2093   0.0000   0.2828
  10.500   1.4603   0.01176   0.00692  -0.0655  0.0839  1.0000  -3.4186   0.0000   0.2782
  11.000   1.4897   0.01265   0.00773  -0.0614  0.0726  1.0000  -3.6272   0.0000   0.2737
  11.500   1.5180   0.01365   0.00866  -0.0574  0.0599  1.0000  -3.8365   0.0000   0.2694
  12.000   1.5442   0.01479   0.00975  -0.0533  0.0484  1.0000  -4.0447   0.0000   0.2652
  12.500   1.5693   0.01609   0.01100  -0.0494  0.0393  1.0000  -4.2522   0.0000   0.2612
  13.000   1.5993   0.01723   0.01215  -0.0464  0.0361  1.0000  -4.4778   0.0000   0.2578
  13.500   1.6221   0.01877   0.01367  -0.0427  0.0321  1.0000  -4.6863   0.0000   0.2542
  14.000   1.6473   0.02032   0.01523  -0.0397  0.0273  1.0000  -4.9026   0.0000   0.2509
  14.500   1.6738   0.02190   0.01685  -0.0371  0.0263  1.0000  -5.1463   0.0000   0.2480
  15.000   1.6976   0.02374   0.01874  -0.0346  0.0255  1.0000  -5.4033   0.0000   0.2451
  15.500   1.7159   0.02606   0.02109  -0.0318  0.0238  1.0000  -5.6446   0.0000   0.2422
  16.000   1.7270   0.02895   0.02399  -0.0288  0.0212  1.0000  -5.8605   0.0000   0.2392
  16.500   1.7334   0.03255   0.02767  -0.0260  0.0170  1.0000  -6.0450   0.0000   0.2363
  17.000   1.7485   0.03567   0.03087  -0.0243  0.0170  1.0000  -6.2799   0.0000   0.2340
  17.500   1.7634   0.03888   0.03416  -0.0228  0.0170  1.0000  -6.5168   0.0000   0.2318
  18.000   1.7741   0.04262   0.03799  -0.0215  0.0170  1.0000  -6.7390   0.0000   0.2297
  18.500   1.7830   0.04667   0.04211  -0.0206  0.0169  1.0000  -6.9606   0.0000   0.2279
  19.000   1.7885   0.05099   0.04652  -0.0197  0.0169  1.0000  -7.1708   0.0000   0.2261
  19.500   1.7907   0.05586   0.05148  -0.0192  0.0169  1.0000  -7.4392   0.0000   0.2244
  20.000   1.7962   0.06046   0.05618  -0.0188  0.0168  1.0000  -7.7281   0.0000   0.2228
  20.500   1.7922   0.06637   0.06220  -0.0188  0.0168  1.0000  -7.9651   0.0000   0.2215
  21.000   1.7849   0.07277   0.06872  -0.0193  0.0167  1.0000  -8.1833   0.0000   0.2203
  21.500   1.7752   0.07950   0.07558  -0.0201  0.0167  1.0000  -8.3868   0.0000   0.2194
  22.000   1.7750   0.08493   0.08110  -0.0207  0.0165  1.0000  -8.6492   0.0000   0.2183
  22.500   1.7590   0.09221   0.08851  -0.0221  0.0164  1.0000  -8.8109   0.0000   0.2177
  23.000   1.7400   0.10019   0.09663  -0.0240  0.0162  1.0000  -8.9478   0.0000   0.2174
  23.500   1.7218   0.10831   0.10488  -0.0263  0.0161  1.0000  -9.0838   0.0000   0.2174
  24.000   1.7154   0.11478   0.11145  -0.0285  0.0158  1.0000  -9.2974   0.0000   0.2171
  24.500   1.6922   0.12379   0.12059  -0.0320  0.0155  1.0000  -9.3855   0.0000   0.2178
  25.000   1.6673   0.13310   0.13004  -0.0361  0.0150  1.0000  -9.4502   0.0000   0.2190


