xflr5 v6.42

 Calculated polar for: NACA 2421

 1 1 Reynolds number fixed          Mach number fixed         

 xtrf =   1.000 (top)        1.000 (bottom)
 Mach =   0.000     Re =     5.085 e 6     Ncrit =   9.000

  alpha     CL        CD       CDp       Cm    Top Xtr Bot Xtr   Cpmin    Chinge    XCp    
 ------- -------- --------- --------- -------- ------- ------- -------- --------- ---------
  -5.000  -0.3070   0.00672   0.00180  -0.0494  0.5808  0.1484  -1.5873   0.0000   0.0682
  -4.500  -0.2520   0.00676   0.00172  -0.0492  0.5558  0.1497  -1.4664   0.0000   0.0322
  -4.000  -0.1954   0.00674   0.00164  -0.0493  0.5278  0.1557  -1.3464   0.0000  -0.0277
  -3.500  -0.1387   0.00665   0.00156  -0.0495  0.4991  0.1739  -1.2291   0.0000  -0.1373
  -2.000   0.0305   0.00602   0.00129  -0.0499  0.4944  0.2445  -0.9222   0.0000   1.9554
  -1.000   0.1424   0.00618   0.00130  -0.0499  0.4618  0.2501  -0.8131   0.0000   0.6057
  -0.500   0.1973   0.00628   0.00134  -0.0498  0.4299  0.2627  -0.8580   0.0000   0.5023
   0.000   0.2522   0.00621   0.00132  -0.0496  0.3974  0.2827  -0.9062   0.0000   0.4439
   0.500   0.3018   0.00643   0.00141  -0.0485  0.3652  0.2967  -0.9664   0.0000   0.4060
   1.000   0.3562   0.00661   0.00148  -0.0482  0.3362  0.3005  -1.0305   0.0000   0.3794
   1.500   0.4128   0.00665   0.00153  -0.0484  0.3101  0.3405  -1.0970   0.0000   0.3601
   2.000   0.4676   0.00647   0.00155  -0.0483  0.2992  0.3914  -1.1631   0.0000   0.3453
   2.500   0.5245   0.00650   0.00163  -0.0486  0.2966  0.4149  -1.2315   0.0000   0.3338
   3.000   0.5694   0.00700   0.00196  -0.0468  0.2503  0.4737  -1.2909   0.0000   0.3224
   3.500   0.6190   0.00735   0.00220  -0.0458  0.2243  0.4967  -1.3663   0.0000   0.3136
   4.000   0.6747   0.00753   0.00236  -0.0458  0.2081  0.5094  -1.4531   0.0000   0.3070
   4.500   0.7304   0.00759   0.00249  -0.0460  0.1992  0.5590  -1.5531   0.0000   0.3013
   5.000   0.7857   0.00760   0.00263  -0.0460  0.1980  0.5929  -1.6558   0.0000   0.2964
   5.500   0.8416   0.00775   0.00280  -0.0462  0.1962  0.6013  -1.7607   0.0000   0.2920
   6.000   0.8931   0.00794   0.00305  -0.0456  0.1870  0.6682  -1.8627   0.0000   0.2876
   6.500   0.9400   0.00835   0.00344  -0.0442  0.1623  0.6957  -1.9606   0.0000   0.2829
   7.000   0.9879   0.00860   0.00368  -0.0428  0.1484  0.7223  -2.0796   0.0000   0.2785
   7.500   1.0357   0.00885   0.00404  -0.0416  0.1421  0.7810  -2.2397   0.0000   0.2746
   8.000   1.0910   0.00887   0.00428  -0.0417  0.1471  0.8366  -2.4475   0.0000   0.2719
   8.500   1.1365   0.00923   0.00473  -0.0400  0.1395  0.8982  -2.6407   0.0000   0.2682
   9.000   1.1771   0.00983   0.00529  -0.0376  0.1255  0.9359  -2.8284   0.0000   0.2642
   9.500   1.2195   0.01037   0.00578  -0.0355  0.1049  0.9493  -3.0238   0.0000   0.2606
  10.000   1.2512   0.01142   0.00675  -0.0322  0.0898  0.9834  -3.2007   0.0000   0.2564
  10.500   1.2783   0.01255   0.00776  -0.0284  0.0742  1.0000  -3.3709   0.0000   0.2519
  11.000   1.2914   0.01413   0.00936  -0.0227  0.0712  1.0000  -3.5144   0.0000   0.2463
  11.500   1.3196   0.01563   0.01072  -0.0196  0.0522  1.0000  -3.6906   0.0000   0.2426
  12.000   1.3650   0.01628   0.01140  -0.0189  0.0545  1.0000  -3.9073   0.0000   0.2407
  12.500   1.4041   0.01730   0.01236  -0.0175  0.0469  1.0000  -4.1160   0.0000   0.2384
  13.000   1.4402   0.01848   0.01350  -0.0158  0.0430  1.0000  -4.3211   0.0000   0.2360
  13.500   1.4694   0.02004   0.01501  -0.0135  0.0382  1.0000  -4.5118   0.0000   0.2332
  14.500   1.4999   0.02484   0.01986  -0.0076  0.0287  1.0000  -4.8286   0.0000   0.2268
  15.000   1.5343   0.02619   0.02122  -0.0065  0.0259  1.0000  -5.0385   0.0000   0.2249
  15.500   1.5661   0.02784   0.02289  -0.0054  0.0249  1.0000  -5.2445   0.0000   0.2230
  16.500   1.5809   0.03605   0.03127  -0.0023  0.0248  1.0000  -5.5244   0.0000   0.2185
  17.000   1.6109   0.03802   0.03326  -0.0015  0.0248  1.0000  -5.7315   0.0000   0.2168
  17.500   1.6393   0.04023   0.03553  -0.0008  0.0246  1.0000  -5.9401   0.0000   0.2153
  18.000   1.6514   0.04427   0.03966  -0.0003  0.0245  1.0000  -6.0980   0.0000   0.2136
  18.500   1.6162   0.05336   0.04893   0.0002  0.0244  1.0000  -6.1027   0.0000   0.2116
  19.000   1.6410   0.05585   0.05145   0.0006  0.0243  1.0000  -6.2991   0.0000   0.2102
  19.500   1.6634   0.05856   0.05420   0.0008  0.0241  1.0000  -6.4895   0.0000   0.2088
  20.000   1.5506   0.07668   0.07270  -0.0009  0.0242  1.0000  -6.2118   0.0000   0.2077
  20.500   1.5734   0.07940   0.07545  -0.0010  0.0240  1.0000  -6.3992   0.0000   0.2064
  21.000   1.5965   0.08209   0.07816  -0.0012  0.0238  1.0000  -6.5896   0.0000   0.2053
  21.500   1.6188   0.08488   0.08097  -0.0015  0.0237  1.0000  -6.7783   0.0000   0.2041
  22.000   1.6370   0.08814   0.08428  -0.0020  0.0235  1.0000  -6.9534   0.0000   0.2030
  22.500   1.4928   0.11300   0.10961  -0.0097  0.0236  1.0000  -6.4868   0.0000   0.2058
  23.000   1.5145   0.11570   0.11233  -0.0107  0.0233  1.0000  -6.6676   0.0000   0.2049
  23.500   1.5357   0.11840   0.11504  -0.0117  0.0230  1.0000  -6.8477   0.0000   0.2041
  24.000   1.5549   0.12127   0.11792  -0.0130  0.0225  1.0000  -7.0214   0.0000   0.2033
  24.500   1.5762   0.12390   0.12062  -0.0142  0.0230  1.0000  -7.1985   0.0000   0.2026
  25.000   1.5279   0.13547   0.13241  -0.0201  0.0229  1.0000  -7.0656   0.0000   0.2049


