xflr5 v6.42

 Calculated polar for: NACA 4424

 1 1 Reynolds number fixed          Mach number fixed         

 xtrf =   1.000 (top)        1.000 (bottom)
 Mach =   0.000     Re =     5.085 e 6     Ncrit =   9.000

  alpha     CL        CD       CDp       Cm    Top Xtr Bot Xtr   Cpmin    Chinge    XCp    
 ------- -------- --------- --------- -------- ------- ------- -------- --------- ---------
  -4.500  -0.0951   0.00750   0.00256  -0.0764  0.5010  0.1616  -1.5004   0.0000  -0.6270
  -4.000  -0.0375   0.00741   0.00249  -0.0766  0.5001  0.1636  -1.3905   0.0000  -1.9557
  -2.000   0.1942   0.00699   0.00229  -0.0780  0.4956  0.2122  -0.9714   0.0000   0.6647
  -1.500   0.2508   0.00701   0.00230  -0.0781  0.4896  0.2192  -1.0097   0.0000   0.5679
  -1.000   0.3013   0.00719   0.00238  -0.0771  0.4679  0.2386  -1.0566   0.0000   0.5083
  -0.500   0.3515   0.00727   0.00246  -0.0761  0.4464  0.2552  -1.1039   0.0000   0.4660
   0.000   0.4040   0.00736   0.00254  -0.0755  0.4258  0.2602  -1.1529   0.0000   0.4340
   0.500   0.4558   0.00741   0.00262  -0.0748  0.4033  0.2769  -1.2018   0.0000   0.4093
   4.500   0.6767   0.01105   0.00680  -0.0368  0.3716  0.4317  -1.5403   0.0000   0.2885
   5.000   0.7223   0.01144   0.00715  -0.0357  0.3389  0.4783  -1.6072   0.0000   0.2827
   5.500   0.7728   0.01164   0.00741  -0.0354  0.3063  0.5235  -1.6792   0.0000   0.2782
   6.000   0.8250   0.01168   0.00765  -0.0353  0.2924  0.5937  -1.7535   0.0000   0.2746
   6.500   0.8768   0.01187   0.00787  -0.0351  0.2906  0.6198  -1.8281   0.0000   0.2711
   7.000   0.9250   0.01202   0.00819  -0.0344  0.2856  0.6895  -1.9022   0.0000   0.2674
   7.500   0.9656   0.01269   0.00871  -0.0327  0.2681  0.7260  -1.9861   0.0000   0.2633
   8.000   1.0032   0.01316   0.00926  -0.0303  0.2482  0.7883  -2.0680   0.0000   0.2587
   9.000   1.0671   0.01437   0.01057  -0.0235  0.2272  0.8943  -2.2223   0.0000   0.2488
   9.500   0.9992   0.01953   0.01593  -0.0083  0.2186  0.9347  -2.1865   0.0000   0.2329
  10.500   1.0751   0.02093   0.01722  -0.0047  0.1860  0.9879  -2.3771   0.0000   0.2273
  11.000   1.1766   0.02182   0.01805  -0.0161  0.1806  0.9974  -2.5535   0.0000   0.2361
  11.500   1.2130   0.02274   0.01882  -0.0151  0.1654  0.9981  -2.6709   0.0000   0.2339
  12.500   1.3108   0.02323   0.01952  -0.0152  0.1766  0.9984  -2.9520   0.0000   0.2313
  13.000   1.3301   0.02486   0.02102  -0.0122  0.1598  0.9984  -3.0477   0.0000   0.2278
  13.500   1.2559   0.03275   0.02911  -0.0025  0.1525  0.9982  -2.9912   0.0000   0.2185
  14.000   1.2909   0.03378   0.03010  -0.0015  0.1358  0.9982  -3.1111   0.0000   0.2167
  14.500   1.3276   0.03471   0.03102  -0.0006  0.1340  0.9982  -3.2355   0.0000   0.2150
  15.000   1.3630   0.03575   0.03204   0.0002  0.1313  0.9982  -3.3587   0.0000   0.2133
  15.500   1.3834   0.03778   0.03393   0.0021  0.1194  0.9982  -3.4567   0.0000   0.2109
  16.000   1.2775   0.05061   0.04707   0.0085  0.1182  0.9981  -3.3222   0.0000   0.2032
  16.500   1.3010   0.05242   0.04879   0.0096  0.1047  0.9980  -3.4225   0.0000   0.2013
  17.000   1.3306   0.05385   0.05018   0.0103  0.0884  0.9980  -3.5642   0.0000   0.1999
  17.500   1.3617   0.05517   0.05149   0.0108  0.0848  0.9980  -3.7156   0.0000   0.1986
  18.000   1.3872   0.05689   0.05318   0.0115  0.0817  0.9979  -3.8781   0.0000   0.1971
  18.500   1.2259   0.07671   0.07348   0.0135  0.0834  0.9978  -3.5583   0.0000   0.1913
  19.000   1.2480   0.07877   0.07544   0.0139  0.0777  0.9978  -3.7144   0.0000   0.1900
  19.500   1.2703   0.08083   0.07739   0.0142  0.0714  0.9977  -3.8728   0.0000   0.1887
  20.000   1.2966   0.08257   0.07908   0.0143  0.0651  0.9977  -4.0442   0.0000   0.1877
  20.500   1.3248   0.08413   0.08063   0.0142  0.0614  0.9976  -4.2240   0.0000   0.1867
  21.000   1.3537   0.08563   0.08214   0.0141  0.0611  0.9976  -4.4083   0.0000   0.1858
  21.500   1.3808   0.08729   0.08382   0.0139  0.0608  0.9976  -4.5898   0.0000   0.1849
  23.500   1.2617   0.11908   0.11619   0.0070  0.0592  0.9974  -4.5993   0.0000   0.1821
  24.000   1.2842   0.12071   0.11778   0.0062  0.0568  0.9973  -4.7672   0.0000   0.1813
  24.500   1.2988   0.12303   0.11998   0.0053  0.0485  0.9973  -4.9092   0.0000   0.1806
  25.000   1.3164   0.12504   0.12197   0.0044  0.0401  0.9972  -5.0624   0.0000   0.1799


