xflr5 v6.42

 Calculated polar for: NACA 2.5411

 1 1 Reynolds number fixed          Mach number fixed         

 xtrf =   1.000 (top)        1.000 (bottom)
 Mach =   0.000     Re =     5.085 e 6     Ncrit =   9.000

  alpha     CL        CD       CDp       Cm    Top Xtr Bot Xtr   Cpmin    Chinge    XCp    
 ------- -------- --------- --------- -------- ------- ------- -------- --------- ---------
  -4.500  -0.1854   0.00582   0.00126  -0.0687  0.7499  0.0370  -2.1429   0.0000  -0.1300
  -4.000  -0.1319   0.00564   0.00109  -0.0681  0.7289  0.0460  -1.7998   0.0000  -0.2773
  -3.500  -0.0780   0.00554   0.00097  -0.0675  0.7000  0.0597  -1.4744   0.0000  -0.6317
  -3.000  -0.0256   0.00549   0.00085  -0.0667  0.6555  0.0704  -1.2571   0.0000  -2.3977
  -2.500   0.0294   0.00547   0.00076  -0.0663  0.6368  0.0768  -1.0541   0.0000   2.5284
  -2.000   0.0828   0.00538   0.00068  -0.0657  0.6015  0.0986  -0.8605   0.0000   1.0502
  -1.500   0.1355   0.00538   0.00064  -0.0649  0.5642  0.1259  -0.6769   0.0000   0.7315
  -1.000   0.1905   0.00529   0.00060  -0.0646  0.5464  0.1544  -0.5327   0.0000   0.5898
  -0.500   0.2423   0.00523   0.00059  -0.0638  0.5047  0.2090  -0.5342   0.0000   0.5127
   0.000   0.2967   0.00515   0.00058  -0.0634  0.4901  0.2519  -0.5754   0.0000   0.4624
   0.500   0.3497   0.00516   0.00061  -0.0627  0.4600  0.2980  -0.6218   0.0000   0.4276
   1.000   0.4037   0.00514   0.00065  -0.0623  0.4374  0.3454  -0.6705   0.0000   0.4021
   1.500   0.4533   0.00508   0.00074  -0.0610  0.3907  0.4717  -0.7235   0.0000   0.3820
   2.000   0.5028   0.00501   0.00084  -0.0598  0.3609  0.5909  -0.7857   0.0000   0.3659
   3.000   0.5969   0.00532   0.00121  -0.0562  0.2452  0.7975  -0.9670   0.0000   0.3403
   3.500   0.6412   0.00548   0.00143  -0.0537  0.1993  0.8970  -1.1086   0.0000   0.3295
   4.000   0.6996   0.00578   0.00171  -0.0544  0.1588  0.9735  -1.3090   0.0000   0.3230
   4.500   0.7771   0.00611   0.00198  -0.0594  0.1448  0.9865  -1.5791   0.0000   0.3213
   5.000   0.8383   0.00672   0.00234  -0.0610  0.0935  0.9935  -1.8314   0.0000   0.3171
   5.500   0.9028   0.00724   0.00268  -0.0632  0.0662  0.9980  -2.1169   0.0000   0.3139
   6.000   0.9680   0.00772   0.00303  -0.0656  0.0499  0.9998  -2.5280   0.0000   0.3111
   6.500   1.0152   0.00816   0.00337  -0.0640  0.0348  1.0000  -2.8996   0.0000   0.3058
   7.000   1.0585   0.00860   0.00372  -0.0615  0.0242  1.0000  -3.2737   0.0000   0.3003
   7.500   1.1046   0.00891   0.00402  -0.0596  0.0216  1.0000  -3.6766   0.0000   0.2955
   8.000   1.1498   0.00931   0.00442  -0.0576  0.0195  1.0000  -4.0875   0.0000   0.2910
   8.500   1.1927   0.00986   0.00489  -0.0552  0.0141  1.0000  -4.5089   0.0000   0.2866
   9.000   1.2377   0.01032   0.00532  -0.0532  0.0090  1.0000  -4.9447   0.0000   0.2826
   9.500   1.2828   0.01075   0.00577  -0.0513  0.0089  1.0000  -5.4058   0.0000   0.2789
  10.000   1.3272   0.01122   0.00625  -0.0494  0.0088  1.0000  -5.8816   0.0000   0.2754
  10.500   1.3711   0.01170   0.00675  -0.0474  0.0087  1.0000  -6.3791   0.0000   0.2720
  11.000   1.4136   0.01224   0.00731  -0.0452  0.0086  1.0000  -6.8775   0.0000   0.2686
  11.500   1.4555   0.01277   0.00788  -0.0430  0.0086  1.0000  -7.4072   0.0000   0.2654
  12.000   1.4948   0.01337   0.00851  -0.0404  0.0085  1.0000  -7.9249   0.0000   0.2620
  12.500   1.5281   0.01399   0.00918  -0.0366  0.0084  1.0000  -8.4219   0.0000   0.2581
  13.000   1.5608   0.01469   0.00992  -0.0329  0.0083  1.0000  -8.9284   0.0000   0.2544
  13.500   1.5929   0.01548   0.01076  -0.0294  0.0082  1.0000  -9.4429   0.0000   0.2509
  14.000   1.6234   0.01638   0.01171  -0.0259  0.0081  1.0000  -9.9593   0.0000   0.2475
  14.500   1.6529   0.01741   0.01280  -0.0227  0.0080  1.0000  -10.4811   0.0000   0.2443
  15.000   1.6800   0.01856   0.01401  -0.0193  0.0079  1.0000  -10.9979   0.0000   0.2411
  15.500   1.7020   0.02013   0.01571  -0.0157  0.0079  1.0000  -11.4655   0.0000   0.2378
  16.000   1.7239   0.02184   0.01750  -0.0126  0.0078  1.0000  -11.9601   0.0000   0.2349
  16.500   1.7425   0.02378   0.01952  -0.0096  0.0077  1.0000  -12.4409   0.0000   0.2320
  17.000   1.7601   0.02593   0.02175  -0.0069  0.0076  1.0000  -12.9219   0.0000   0.2293
  17.500   1.7746   0.02865   0.02455  -0.0047  0.0074  1.0000  -13.3843   0.0000   0.2269
  18.000   1.7849   0.03198   0.02797  -0.0029  0.0073  1.0000  -13.8171   0.0000   0.2247
  18.500   1.7912   0.03590   0.03200  -0.0016  0.0071  1.0000  -14.2193   0.0000   0.2227
  19.000   1.7940   0.04038   0.03658  -0.0008  0.0069  1.0000  -14.5914   0.0000   0.2210
  19.500   1.7977   0.04480   0.04108  -0.0002  0.0067  1.0000  -14.9730   0.0000   0.2194
  20.000   1.7863   0.05071   0.04711  -0.0002  0.0065  1.0000  -15.2161   0.0000   0.2181
  20.500   1.7716   0.05786   0.05437  -0.0012  0.0059  1.0000  -15.4296   0.0000   0.2173
  21.000   1.7492   0.06653   0.06318  -0.0033  0.0055  1.0000  -15.5506   0.0000   0.2170
  21.500   1.7192   0.07658   0.07339  -0.0062  0.0053  1.0000  -15.6249   0.0000   0.2174
  22.000   1.6827   0.08770   0.08469  -0.0102  0.0052  1.0000  -15.5995   0.0000   0.2183
  22.500   1.6664   0.09561   0.09271  -0.0130  0.0049  1.0000  -15.8061   0.0000   0.2186
  23.000   1.6247   0.10762   0.10491  -0.0189  0.0048  1.0000  -15.6590   0.0000   0.2210
  23.500   1.5778   0.11961   0.11710  -0.0263  0.0047  1.0000  -15.3929   0.0000   0.2246
  24.000   1.5282   0.13307   0.13079  -0.0353  0.0047  1.0000  -15.0223   0.0000   0.2296
  25.000   1.4601   0.15922   0.15726  -0.0525  0.0044  1.0000  -14.5894   0.0000   0.2395


