xflr5 v6.42

 Calculated polar for: NACA 2410

 1 1 Reynolds number fixed          Mach number fixed         

 xtrf =   1.000 (top)        1.000 (bottom)
 Mach =   0.000     Re =     5.085 e 6     Ncrit =   9.000

  alpha     CL        CD       CDp       Cm    Top Xtr Bot Xtr   Cpmin    Chinge    XCp    
 ------- -------- --------- --------- -------- ------- ------- -------- --------- ---------
  -5.000  -0.3211   0.00823   0.00179  -0.0462  0.0904  0.0257  -2.6010   0.0000   0.1007
  -0.500   0.1748   0.00784   0.00103  -0.0493  0.0260  0.0266  -0.6767   0.0000   0.5327
   0.000   0.2299   0.00787   0.00105  -0.0497  0.0245  0.0267  -0.5080   0.0000   0.4660
   0.500   0.2850   0.00791   0.00108  -0.0501  0.0230  0.0267  -0.5365   0.0000   0.4251
   1.000   0.3399   0.00797   0.00113  -0.0505  0.0229  0.0268  -0.6216   0.0000   0.3975
   1.500   0.3948   0.00804   0.00119  -0.0509  0.0228  0.0270  -0.8065   0.0000   0.3774
   2.000   0.4496   0.00813   0.00128  -0.0513  0.0227  0.0279  -1.0007   0.0000   0.3622
   2.500   0.5042   0.00822   0.00138  -0.0517  0.0227  0.0299  -1.2034   0.0000   0.3502
   3.000   0.5587   0.00834   0.00150  -0.0520  0.0226  0.0318  -1.4137   0.0000   0.3405
   3.500   0.6131   0.00848   0.00166  -0.0523  0.0225  0.0341  -1.6281   0.0000   0.3323
   5.500   0.8228   0.01019   0.00391  -0.0517  0.0225  0.0477  -2.4226   0.0000   0.3079
   6.000   0.8690   0.01141   0.00533  -0.0503  0.0226  0.0536  -2.5907   0.0000   0.3025
   7.000   0.9857   0.00884   0.00331  -0.0543  0.0214  0.6679  -3.4547   0.0000   0.2986
   7.500   1.0332   0.00855   0.00367  -0.0534  0.0205  0.9628  -3.7472   0.0000   0.2945
   8.000   1.0894   0.00901   0.00406  -0.0545  0.0166  1.0000  -4.0779   0.0000   0.2922
   8.500   1.1397   0.00953   0.00449  -0.0543  0.0117  1.0000  -4.3915   0.0000   0.2891
   9.500   1.2279   0.01218   0.00777  -0.0511  0.0084  1.0000  -5.2325   0.0000   0.2816
  10.000   1.2600   0.01493   0.01086  -0.0473  0.0086  1.0000  -5.6775   0.0000   0.2768


