xflr5 v6.42

 Calculated polar for: NACA 1408

 1 1 Reynolds number fixed          Mach number fixed         

 xtrf =   1.000 (top)        1.000 (bottom)
 Mach =   0.000     Re =     5.085 e 6     Ncrit =   9.000

  alpha     CL        CD       CDp       Cm    Top Xtr Bot Xtr   Cpmin    Chinge    XCp    
 ------- -------- --------- --------- -------- ------- ------- -------- --------- ---------
  -5.000  -0.4260   0.00803   0.00149  -0.0200  0.0288  0.0190  -2.6586   0.0000   0.1998
  -4.500  -0.3725   0.00785   0.00134  -0.0205  0.0270  0.0236  -2.3890   0.0000   0.1921
  -4.000  -0.3184   0.00781   0.00132  -0.0211  0.0253  0.0245  -2.1195   0.0000   0.1812
   4.500   0.5994   0.00821   0.00164  -0.0295  0.0231  0.0257  -2.2677   0.0000   0.2965
   5.000   0.6528   0.00832   0.00175  -0.0301  0.0225  0.0264  -2.5420   0.0000   0.2929
   5.500   0.7058   0.00851   0.00193  -0.0305  0.0202  0.0286  -2.8200   0.0000   0.2896
   6.000   0.7579   0.00886   0.00221  -0.0308  0.0130  0.0308  -3.0992   0.0000   0.2866
   7.000   0.8628   0.00944   0.00286  -0.0314  0.0108  0.0367  -4.3358   0.0000   0.2812
   7.500   0.9147   0.00983   0.00330  -0.0316  0.0104  0.0481  -5.1265   0.0000   0.2788
   8.000   0.9658   0.01034   0.00393  -0.0316  0.0100  0.0747  -5.9537   0.0000   0.2763
   8.500   1.0149   0.01122   0.00499  -0.0311  0.0096  0.0907  -6.7826   0.0000   0.2736


