xflr5 v6.42

 Calculated polar for: NACA 2408

 1 1 Reynolds number fixed          Mach number fixed         

 xtrf =   1.000 (top)        1.000 (bottom)
 Mach =   0.000     Re =     5.085 e 6     Ncrit =   9.000

  alpha     CL        CD       CDp       Cm    Top Xtr Bot Xtr   Cpmin    Chinge    XCp    
 ------- -------- --------- --------- -------- ------- ------- -------- --------- ---------
  -5.000  -0.3127   0.00802   0.00145  -0.0450  0.0260  0.0142  -2.6942   0.0000   0.1021
  -4.500  -0.2589   0.00780   0.00128  -0.0454  0.0233  0.0220  -2.4349   0.0000   0.0707
  -4.000  -0.2047   0.00771   0.00121  -0.0459  0.0231  0.0248  -2.1735   0.0000   0.0217
  -3.500  -0.1502   0.00789   0.00149  -0.0467  0.0229  0.0256  -1.8716   0.0000  -0.0652
   5.500   0.8173   0.00889   0.00229  -0.0553  0.0209  0.0266  -2.8207   0.0000   0.3136
   6.000   0.8699   0.00905   0.00243  -0.0558  0.0186  0.0290  -3.1363   0.0000   0.3096
   6.500   0.9213   0.00942   0.00275  -0.0561  0.0121  0.0314  -3.4359   0.0000   0.3058
   7.500   1.0242   0.01013   0.00353  -0.0565  0.0103  0.0376  -4.7112   0.0000   0.2988
   8.000   1.0748   0.01059   0.00406  -0.0565  0.0099  0.0509  -5.5208   0.0000   0.2956
   8.500   1.1245   0.01116   0.00474  -0.0564  0.0095  0.0768  -6.3661   0.0000   0.2925


