xflr5 v6.42

 Calculated polar for: NACA 2424

 1 1 Reynolds number fixed          Mach number fixed         

 xtrf =   1.000 (top)        1.000 (bottom)
 Mach =   0.000     Re =     5.085 e 6     Ncrit =   9.000

  alpha     CL        CD       CDp       Cm    Top Xtr Bot Xtr   Cpmin    Chinge    XCp    
 ------- -------- --------- --------- -------- ------- ------- -------- --------- ---------
  -2.000  -0.0092   0.00692   0.00228  -0.0398  0.4911  0.2535  -1.0311   0.0000  -4.3959
  -1.500   0.0456   0.00702   0.00228  -0.0397  0.4711  0.2624  -0.9555   0.0000   1.1650
  -1.000   0.0984   0.00704   0.00228  -0.0392  0.4377  0.2849  -0.8826   0.0000   0.6604
  -0.500   0.1539   0.00694   0.00225  -0.0393  0.4055  0.3001  -0.9338   0.0000   0.5070
   4.500   0.5193   0.01017   0.00556  -0.0060  0.2559  0.5022  -1.4468   0.0000   0.2443
   5.000   0.5592   0.01049   0.00593  -0.0037  0.2422  0.5598  -1.5207   0.0000   0.2386
   9.000   0.9177   0.01327   0.00894   0.0072  0.1421  0.8029  -2.2718   0.0000   0.2193
   9.500   0.9500   0.01359   0.00944   0.0110  0.1408  0.8868  -2.3792   0.0000   0.2147
  10.000   0.9910   0.01416   0.01000   0.0127  0.1379  0.8927  -2.4986   0.0000   0.2128
  10.500   0.9539   0.01806   0.01402   0.0231  0.1331  0.8960  -2.5071   0.0000   0.1995
  11.000   1.0017   0.01840   0.01446   0.0236  0.1383  0.8978  -2.6384   0.0000   0.1995
  11.500   0.9641   0.01909   0.01528   0.0408  0.1358  0.9756  -2.6546   0.0000   0.1791
  12.000   1.0291   0.02049   0.01649   0.0357  0.1180  0.9822  -2.8062   0.0000   0.1863
  12.500   1.0836   0.02150   0.01743   0.0333  0.1012  0.9858  -2.9470   0.0000   0.1897
  13.000   1.1425   0.02243   0.01833   0.0301  0.0917  0.9896  -3.0968   0.0000   0.1934
  13.500   1.1153   0.02831   0.02438   0.0330  0.0901  0.9933  -3.1111   0.0000   0.1884
  14.000   1.1510   0.03003   0.02599   0.0324  0.0830  0.9954  -3.2899   0.0000   0.1888
  14.500   1.1852   0.03165   0.02751   0.0325  0.0749  0.9968  -3.4693   0.0000   0.1887
  15.500   1.2500   0.03457   0.03040   0.0338  0.0657  0.9977  -3.8304   0.0000   0.1871
  16.000   1.1800   0.04457   0.04066   0.0375  0.0656  0.9979  -3.7585   0.0000   0.1800
  16.500   1.2085   0.04623   0.04231   0.0383  0.0638  0.9979  -3.9327   0.0000   0.1791
  17.000   1.2147   0.04942   0.04532   0.0401  0.0418  0.9979  -4.0504   0.0000   0.1765
  17.500   1.2349   0.05179   0.04767   0.0408  0.0391  0.9979  -4.2059   0.0000   0.1753
  18.500   1.1403   0.06937   0.06560   0.0414  0.0374  0.9977  -4.1338   0.0000   0.1678
  19.000   1.1652   0.07123   0.06742   0.0416  0.0349  0.9977  -4.3004   0.0000   0.1673
  19.500   1.1908   0.07312   0.06928   0.0417  0.0326  0.9977  -4.4712   0.0000   0.1670
  20.000   1.2159   0.07514   0.07128   0.0417  0.0304  0.9976  -4.6420   0.0000   0.1666
  20.500   1.0636   0.09822   0.09489   0.0364  0.0316  0.9976  -4.2415   0.0000   0.1630
  21.000   1.0874   0.10040   0.09705   0.0359  0.0294  0.9975  -4.4028   0.0000   0.1630
  21.500   1.1118   0.10247   0.09910   0.0354  0.0271  0.9975  -4.5678   0.0000   0.1631
  22.000   1.1366   0.10449   0.10112   0.0348  0.0247  0.9975  -4.7355   0.0000   0.1631
  22.500   1.1611   0.10647   0.10309   0.0341  0.0221  0.9975  -4.9034   0.0000   0.1632
  23.000   1.1844   0.10850   0.10512   0.0335  0.0201  0.9975  -5.0675   0.0000   0.1631
  23.500   1.2061   0.11068   0.10735   0.0326  0.0201  0.9974  -5.2316   0.0000   0.1630
  24.000   1.1573   0.12179   0.11869   0.0282  0.0200  0.9974  -5.1234   0.0000   0.1638
  24.500   1.1737   0.12437   0.12129   0.0269  0.0200  0.9973  -5.2648   0.0000   0.1639
  25.000   1.1897   0.12690   0.12385   0.0255  0.0200  0.9973  -5.4056   0.0000   0.1639


