xflr5 v6.42

 Calculated polar for: NACA 2415

 1 1 Reynolds number fixed          Mach number fixed         

 xtrf =   1.000 (top)        1.000 (bottom)
 Mach =   0.000     Re =     5.085 e 6     Ncrit =   9.000

  alpha     CL        CD       CDp       Cm    Top Xtr Bot Xtr   Cpmin    Chinge    XCp    
 ------- -------- --------- --------- -------- ------- ------- -------- --------- ---------
  -5.000  -0.3021   0.00668   0.00170  -0.0508  0.6956  0.0300  -2.0546   0.0000   0.0705
  -4.500  -0.2490   0.00678   0.00158  -0.0504  0.6359  0.0342  -1.8305   0.0000   0.0356
  -4.000  -0.1968   0.00697   0.00150  -0.0499  0.5453  0.0374  -1.6155   0.0000  -0.0167
  -3.500  -0.1406   0.00689   0.00139  -0.0502  0.4996  0.0403  -1.4012   0.0000  -0.1223
  -3.000  -0.0859   0.00694   0.00132  -0.0502  0.4694  0.0431  -1.1984   0.0000  -0.3545
  -2.500  -0.0315   0.00703   0.00126  -0.0501  0.3991  0.0456  -1.0044   0.0000  -1.3888
  -2.000   0.0227   0.00718   0.00125  -0.0500  0.3645  0.0479  -0.8196   0.0000   2.5041
  -1.000   0.1265   0.00774   0.00137  -0.0491  0.2199  0.0726  -0.5963   0.0000   0.6411
   0.000   0.2328   0.00837   0.00161  -0.0485  0.0915  0.0771  -0.6733   0.0000   0.4571
   0.500   0.2873   0.00830   0.00164  -0.0485  0.0852  0.1222  -0.7270   0.0000   0.4165
   1.000   0.3426   0.00823   0.00167  -0.0486  0.0833  0.1632  -0.7875   0.0000   0.3888
   1.500   0.3977   0.00821   0.00174  -0.0488  0.0749  0.1993  -0.8494   0.0000   0.3688
   2.000   0.4530   0.00818   0.00181  -0.0489  0.0734  0.2465  -0.9114   0.0000   0.3536
   2.500   0.5068   0.00839   0.00200  -0.0488  0.0499  0.2759  -0.9765   0.0000   0.3414
   3.000   0.5618   0.00842   0.00212  -0.0489  0.0476  0.3086  -1.0873   0.0000   0.3317
   3.500   0.6154   0.00829   0.00227  -0.0489  0.0450  0.4500  -1.2729   0.0000   0.3235
   4.000   0.6664   0.00793   0.00247  -0.0484  0.0424  0.6688  -1.4617   0.0000   0.3163
   4.500   0.7190   0.00790   0.00269  -0.0480  0.0395  0.7771  -1.6609   0.0000   0.3099
   5.000   0.7733   0.00808   0.00292  -0.0479  0.0364  0.8231  -1.8707   0.0000   0.3046
   5.500   0.8259   0.00822   0.00316  -0.0475  0.0328  0.8909  -2.0846   0.0000   0.2996
   6.000   0.8808   0.00849   0.00340  -0.0475  0.0276  0.8982  -2.3088   0.0000   0.2955
   6.500   0.9328   0.00869   0.00368  -0.0469  0.0249  0.9488  -2.5314   0.0000   0.2912
   7.000   0.9995   0.00903   0.00401  -0.0497  0.0248  0.9915  -2.7955   0.0000   0.2900
   7.500   1.0572   0.00937   0.00434  -0.0505  0.0248  0.9963  -3.0476   0.0000   0.2875
   8.000   1.1146   0.00975   0.00478  -0.0513  0.0242  0.9989  -3.3340   0.0000   0.2851
   8.500   1.1629   0.01052   0.00543  -0.0505  0.0167  1.0000  -3.5929   0.0000   0.2818
   9.000   1.2040   0.01096   0.00582  -0.0479  0.0126  1.0000  -3.8329   0.0000   0.2775
   9.500   1.2513   0.01141   0.00624  -0.0467  0.0122  1.0000  -4.0934   0.0000   0.2743
  10.000   1.2989   0.01188   0.00669  -0.0456  0.0120  1.0000  -4.3605   0.0000   0.2713
  10.500   1.3457   0.01238   0.00717  -0.0444  0.0119  1.0000  -4.6316   0.0000   0.2684
  11.000   1.3928   0.01282   0.00763  -0.0433  0.0124  1.0000  -4.9052   0.0000   0.2657
  11.500   1.4333   0.01339   0.00819  -0.0410  0.0123  1.0000  -5.1697   0.0000   0.2624
  12.000   1.4727   0.01402   0.00882  -0.0387  0.0121  1.0000  -5.4368   0.0000   0.2592
  12.500   1.5121   0.01471   0.00952  -0.0364  0.0120  1.0000  -5.7082   0.0000   0.2561
  13.000   1.5485   0.01548   0.01030  -0.0339  0.0119  1.0000  -5.9754   0.0000   0.2530
  13.500   1.5731   0.01649   0.01134  -0.0296  0.0118  1.0000  -6.2095   0.0000   0.2490
  14.000   1.6050   0.01756   0.01244  -0.0269  0.0117  1.0000  -6.4694   0.0000   0.2459
  14.500   1.6245   0.01928   0.01422  -0.0230  0.0116  1.0000  -6.6908   0.0000   0.2423
  15.000   1.6577   0.02054   0.01550  -0.0210  0.0115  1.0000  -6.9605   0.0000   0.2398
  15.500   1.6902   0.02186   0.01686  -0.0190  0.0114  1.0000  -7.2315   0.0000   0.2373
  16.000   1.7174   0.02353   0.01860  -0.0167  0.0112  1.0000  -7.4892   0.0000   0.2347
  16.500   1.7170   0.02698   0.02217  -0.0130  0.0111  1.0000  -7.6455   0.0000   0.2314
  17.000   1.7401   0.02906   0.02431  -0.0110  0.0110  1.0000  -7.8884   0.0000   0.2290
  17.500   1.7618   0.03146   0.02677  -0.0093  0.0109  1.0000  -8.1273   0.0000   0.2268
  18.000   1.7516   0.03746   0.03291  -0.0080  0.0109  1.0000  -8.3311   0.0000   0.2247
  18.500   1.7703   0.04052   0.03604  -0.0070  0.0108  1.0000  -8.7235   0.0000   0.2228
  19.000   1.7845   0.04407   0.03967  -0.0061  0.0108  1.0000  -9.0947   0.0000   0.2210
  19.500   1.7531   0.05356   0.04936  -0.0071  0.0107  1.0000  -9.1718   0.0000   0.2201
  20.000   1.7639   0.05749   0.05336  -0.0067  0.0107  1.0000  -9.5244   0.0000   0.2185
  20.500   1.6878   0.07264   0.06882  -0.0102  0.0107  1.0000  -9.2818   0.0000   0.2190
  21.000   1.6979   0.07685   0.07309  -0.0104  0.0107  1.0000  -9.6248   0.0000   0.2178
  21.500   1.7071   0.08129   0.07760  -0.0109  0.0106  1.0000  -9.9655   0.0000   0.2166
  22.500   1.6076   0.10804   0.10480  -0.0206  0.0106  1.0000  -9.7444   0.0000   0.2197
  23.000   1.6172   0.11244   0.10927  -0.0220  0.0106  1.0000  -10.0785   0.0000   0.2190
  23.500   1.6210   0.11765   0.11456  -0.0240  0.0106  1.0000  -10.3673   0.0000   0.2186
  24.000   1.5828   0.12985   0.12696  -0.0300  0.0105  1.0000  -10.2895   0.0000   0.2213
  24.500   1.5790   0.13621   0.13341  -0.0334  0.0105  1.0000  -10.4988   0.0000   0.2218
  25.000   1.5230   0.14956   0.14699  -0.0424  0.0105  1.0000  -10.2127   0.0000   0.2269


