xflr5 v6.42

 Calculated polar for: NACA 1410

 1 1 Reynolds number fixed          Mach number fixed         

 xtrf =   1.000 (top)        1.000 (bottom)
 Mach =   0.000     Re =     5.085 e 6     Ncrit =   9.000

  alpha     CL        CD       CDp       Cm    Top Xtr Bot Xtr   Cpmin    Chinge    XCp    
 ------- -------- --------- --------- -------- ------- ------- -------- --------- ---------
  -5.000  -0.4353   0.00845   0.00200  -0.0214  0.0728  0.0250  -2.5277   0.0000   0.1965
  -1.500  -0.0507   0.00779   0.00101  -0.0237  0.0287  0.0255  -0.9869   0.0000  -0.2244
  -1.000   0.0045   0.00777   0.00097  -0.0241  0.0270  0.0256  -0.8035   0.0000   5.6748
  -0.500   0.0597   0.00777   0.00096  -0.0245  0.0253  0.0257  -0.6256   0.0000   0.6620
   0.000   0.1148   0.00778   0.00096  -0.0249  0.0239  0.0257  -0.4555   0.0000   0.4665
   0.500   0.1699   0.00780   0.00098  -0.0253  0.0238  0.0258  -0.5112   0.0000   0.3979
   1.000   0.2250   0.00784   0.00102  -0.0257  0.0238  0.0259  -0.6889   0.0000   0.3629
   1.500   0.2800   0.00790   0.00107  -0.0261  0.0237  0.0271  -0.8757   0.0000   0.3415
   2.000   0.3350   0.00796   0.00114  -0.0265  0.0236  0.0290  -1.0709   0.0000   0.3271
   2.500   0.3898   0.00805   0.00124  -0.0269  0.0235  0.0309  -1.2730   0.0000   0.3166
   3.000   0.4446   0.00816   0.00139  -0.0272  0.0235  0.0332  -1.4750   0.0000   0.3085
   5.500   0.7085   0.01033   0.00420  -0.0265  0.0235  0.0510  -2.4677   0.0000   0.2829
   6.000   0.7701   0.00906   0.00248  -0.0291  0.0228  0.0853  -2.9684   0.0000   0.2827
   6.500   0.8227   0.00880   0.00268  -0.0293  0.0224  0.3516  -3.2578   0.0000   0.2801
   7.000   0.8751   0.00869   0.00293  -0.0296  0.0217  0.4997  -3.5559   0.0000   0.2777
   7.500   0.9193   0.00808   0.00332  -0.0280  0.0192  0.9419  -3.8426   0.0000   0.2738
   8.000   0.9787   0.00857   0.00375  -0.0298  0.0135  0.9931  -4.1764   0.0000   0.2731
   8.500   1.0322   0.00898   0.00414  -0.0301  0.0114  0.9967  -4.5066   0.0000   0.2712
   9.000   1.0775   0.01057   0.00621  -0.0285  0.0092  1.0000  -5.0352   0.0000   0.2678
   9.500   1.1156   0.01285   0.00882  -0.0256  0.0091  1.0000  -5.5231   0.0000   0.2636


