xflr5 v6.42

 Calculated polar for: NACA 2418

 1 1 Reynolds number fixed          Mach number fixed         

 xtrf =   1.000 (top)        1.000 (bottom)
 Mach =   0.000     Re =     5.085 e 6     Ncrit =   9.000

  alpha     CL        CD       CDp       Cm    Top Xtr Bot Xtr   Cpmin    Chinge    XCp    
 ------- -------- --------- --------- -------- ------- ------- -------- --------- ---------
  -5.000  -0.3048   0.00687   0.00179  -0.0502  0.6119  0.0842  -1.6537   0.0000   0.0694
  -4.500  -0.2492   0.00659   0.00158  -0.0503  0.5960  0.0948  -1.4532   0.0000   0.0311
  -4.000  -0.1933   0.00652   0.00147  -0.0504  0.5794  0.0988  -1.3027   0.0000  -0.0297
  -3.500  -0.1387   0.00661   0.00140  -0.0502  0.5387  0.1003  -1.1879   0.0000  -0.1344
  -3.000  -0.0816   0.00657   0.00134  -0.0505  0.5012  0.1125  -1.0732   0.0000  -0.4006
  -2.000   0.0288   0.00646   0.00122  -0.0505  0.4664  0.1446  -0.8565   0.0000   2.0550
  -1.500   0.0832   0.00655   0.00122  -0.0503  0.4156  0.1615  -0.7695   0.0000   0.8668
  -1.000   0.1390   0.00636   0.00115  -0.0504  0.3980  0.1950  -0.6894   0.0000   0.6163
  -0.500   0.1959   0.00638   0.00116  -0.0506  0.3896  0.2014  -0.7395   0.0000   0.5086
   0.000   0.2461   0.00671   0.00128  -0.0497  0.3234  0.2322  -0.7973   0.0000   0.4500
   0.500   0.3025   0.00666   0.00127  -0.0499  0.2983  0.2490  -0.8602   0.0000   0.4116
   1.000   0.3588   0.00659   0.00129  -0.0501  0.2944  0.2784  -0.9239   0.0000   0.3852
   1.500   0.4085   0.00680   0.00145  -0.0492  0.2620  0.3441  -0.9834   0.0000   0.3650
   2.000   0.4579   0.00690   0.00163  -0.0482  0.2236  0.4409  -1.0434   0.0000   0.3492
   2.500   0.5120   0.00685   0.00173  -0.0481  0.1989  0.4967  -1.1077   0.0000   0.3372
   3.000   0.5683   0.00685   0.00183  -0.0483  0.1966  0.5600  -1.1766   0.0000   0.3277
   3.500   0.6223   0.00697   0.00200  -0.0482  0.1843  0.5953  -1.2715   0.0000   0.3195
   4.000   0.6754   0.00735   0.00225  -0.0479  0.1478  0.6155  -1.3668   0.0000   0.3123
   4.500   0.7270   0.00770   0.00254  -0.0473  0.1282  0.6645  -1.4625   0.0000   0.3060
   5.000   0.7802   0.00792   0.00279  -0.0470  0.1042  0.6958  -1.5943   0.0000   0.3006
   5.500   0.8345   0.00816   0.00303  -0.0469  0.0956  0.7330  -1.7898   0.0000   0.2960
   6.000   0.8823   0.00860   0.00349  -0.0457  0.0761  0.7903  -1.9791   0.0000   0.2910
   7.000   0.9807   0.00943   0.00432  -0.0437  0.0477  0.8925  -2.3815   0.0000   0.2825
   7.500   1.0307   0.00979   0.00470  -0.0428  0.0439  0.9219  -2.5938   0.0000   0.2788
   8.000   1.0833   0.00993   0.00500  -0.0423  0.0483  0.9603  -2.8221   0.0000   0.2757
   8.500   1.1356   0.01067   0.00562  -0.0424  0.0360  0.9858  -3.0524   0.0000   0.2732
   9.000   1.1862   0.01115   0.00607  -0.0419  0.0299  0.9970  -3.2848   0.0000   0.2706
   9.500   1.2294   0.01159   0.00648  -0.0399  0.0255  1.0000  -3.5060   0.0000   0.2669
  10.500   1.3155   0.01256   0.00742  -0.0362  0.0246  1.0000  -3.9642   0.0000   0.2604
  11.000   1.3574   0.01313   0.00799  -0.0344  0.0244  1.0000  -4.1980   0.0000   0.2574
  11.500   1.3889   0.01380   0.00870  -0.0308  0.0246  1.0000  -4.4025   0.0000   0.2534
  12.000   1.4250   0.01456   0.00947  -0.0283  0.0245  1.0000  -4.6287   0.0000   0.2502
  12.500   1.4601   0.01547   0.01040  -0.0259  0.0244  1.0000  -4.8566   0.0000   0.2471
  13.000   1.4827   0.01698   0.01195  -0.0222  0.0243  1.0000  -5.0543   0.0000   0.2434
  13.500   1.5223   0.01790   0.01288  -0.0208  0.0242  1.0000  -5.3016   0.0000   0.2411
  14.000   1.5616   0.01886   0.01384  -0.0194  0.0240  1.0000  -5.5524   0.0000   0.2389
  14.500   1.5992   0.01990   0.01490  -0.0179  0.0239  1.0000  -5.8027   0.0000   0.2367
  15.000   1.6336   0.02113   0.01615  -0.0163  0.0237  1.0000  -6.0470   0.0000   0.2344
  15.500   1.6362   0.02433   0.01946  -0.0125  0.0235  1.0000  -6.1957   0.0000   0.2308
  16.000   1.6639   0.02593   0.02109  -0.0106  0.0232  1.0000  -6.4240   0.0000   0.2285
  16.500   1.6927   0.02763   0.02281  -0.0090  0.0227  1.0000  -6.6592   0.0000   0.2264
  17.000   1.6559   0.03556   0.03079  -0.0056  0.0171  1.0000  -6.6802   0.0000   0.2229
  17.500   1.6739   0.03855   0.03376  -0.0042  0.0134  1.0000  -6.8784   0.0000   0.2209
  18.000   1.6967   0.04119   0.03643  -0.0033  0.0124  1.0000  -7.0935   0.0000   0.2191
  18.500   1.7081   0.04521   0.04052  -0.0027  0.0123  1.0000  -7.2671   0.0000   0.2174
  19.000   1.6792   0.05404   0.04952  -0.0030  0.0123  1.0000  -7.2860   0.0000   0.2161
  19.500   1.6969   0.05724   0.05278  -0.0026  0.0122  1.0000  -7.4816   0.0000   0.2145
  20.000   1.6046   0.07382   0.06971  -0.0054  0.0122  1.0000  -7.2322   0.0000   0.2145
  20.500   1.6218   0.07716   0.07308  -0.0054  0.0121  1.0000  -7.4207   0.0000   0.2132
  21.000   1.6398   0.08046   0.07641  -0.0056  0.0120  1.0000  -7.6132   0.0000   0.2119
  21.500   1.6558   0.08403   0.08002  -0.0059  0.0120  1.0000  -7.7982   0.0000   0.2107
  22.000   1.5311   0.10756   0.10400  -0.0139  0.0120  1.0000  -7.3429   0.0000   0.2141
  22.500   1.5464   0.11117   0.10764  -0.0150  0.0120  1.0000  -7.5152   0.0000   0.2133
  23.000   1.5620   0.11466   0.11116  -0.0161  0.0119  1.0000  -7.6898   0.0000   0.2124
  23.500   1.5768   0.11821   0.11476  -0.0174  0.0118  1.0000  -7.8600   0.0000   0.2117
  24.000   1.5894   0.12211   0.11872  -0.0191  0.0119  1.0000  -8.0178   0.0000   0.2111
  24.500   1.5521   0.13356   0.13037  -0.0247  0.0119  1.0000  -7.9110   0.0000   0.2134
  25.000   1.5582   0.13750   0.13437  -0.0273  0.0118  1.0000  -8.0288   0.0000   0.2134


