
 ===================================================
  XFOIL Version 6.99
  Copyright (C) 2000   Mark Drela, Harold Youngren

  This software comes with ABSOLUTELY NO WARRANTY,
    subject to the GNU General Public License.

  Caveat computor
 ===================================================

 File  xfoil.def  not found

   QUIT    Exit program

  .OPER    Direct operating point(s)
  .MDES    Complex mapping design routine
  .QDES    Surface speed design routine
  .GDES    Geometry design routine

   SAVE f  Write airfoil to labeled coordinate file
   PSAV f  Write airfoil to plain coordinate file
   ISAV f  Write airfoil to ISES coordinate file
   MSAV f  Write airfoil to MSES coordinate file
   REVE    Reverse written-airfoil node ordering

   LOAD f  Read buffer airfoil from coordinate file
   NACA i  Set NACA 4,5-digit airfoil and buffer airfoil
   INTE    Set buffer airfoil by interpolating two airfoils
   NORM    Buffer airfoil normalization toggle
   XYCM rr Change CM reference location, currently  0.25000 0.00000

   BEND    Display structural properties of current airfoil

   PCOP    Set current-airfoil panel nodes directly from buffer airfoil points
   PANE    Set current-airfoil panel nodes ( 160 ) based on curvature
  .PPAR    Show/change paneling

  .PLOP    Plotting options

   WDEF f  Write  current-settings file
   RDEF f  Reread current-settings file
   NAME s  Specify new airfoil name
   NINC    Increment name version number

   Z       Zoom    | (available in all menus)
   U       Unzoom  | 

 XFOIL   c>  
 Labeled airfoil file.  Name:  xfoil                                           

 Number of input coordinate points:  35
 Counterclockwise ordering
 Max thickness =     0.150040  at x =   0.300
 Max camber    =    -0.000000  at x =   0.050

  LE  x,y  =   0.00000   0.00000  |   Chord =   1.00000
  TE  x,y  =   1.00000   0.00000  |

 Current airfoil nodes set from buffer airfoil nodes (  35 )

 WARNING: Poor input coordinate distribution
          Excessive panel angle   55.7  at i =  18
          Repaneling with PANE and/or PPAR suggested
           (doing GDES,CADD before repaneling _may_
            improve excessively coarse LE spacing

 XFOIL   c>  
 You are working with the buffer airfoil

.GDES   c>  
Enter flap hinge x location   r>  
  Top    surface:  y =  0.0395     y/t = 1.0
  Bottom surface:  y = -0.0395     y/t = 0.0

Enter flap hinge y location (or 999 to specify y/t)   r>  
 Flap hinge: x,y =  0.75000  0.00000

Enter flap deflection in degrees (+ down)   r>  
 Top breaks: x,y =    0.75509  0.03884      0.75509  0.03884
 Bot breaks: x,y =    0.75475 -0.03889      0.75543 -0.03880
 Max thickness =     0.150041  at x =   0.299
 Max camber    =     0.003251  at x =   0.755

.GDES   c>  
 Current airfoil nodes set from buffer airfoil nodes (  38 )

.GDES   c>  
 XFOIL   c>  
 Blunt trailing edge.  Gap =  0.00316

 Paneling parameters used...
   Number of panel nodes       160
   Panel bunching parameter    1.000
   TE/LE panel density ratio   0.150
   Refined-area/LE panel density ratio    0.200
   Top    side refined area x/c limits  1.000 1.000
   Bottom side refined area x/c limits  1.000 1.000

 XFOIL   c>   N    command not recognized.  Type a "?" for list

 XFOIL   c>   200  command not recognized.  Type a "?" for list

 XFOIL   c>  
 XFOIL   c>  
.OPERi   c>   Current iteration limit:          10

Enter new iteration limit   i>  
.OPERi   c>  
 XFOIL   c>  
.OPERi   c>  
 Xtr/c     =  1.0000    top    side
 Xtr/c     =  1.0000    bottom side
 Ncrit     =    9.00   ( 0.070 % turb. level )
 Vacc      =  0.0100

 Klag  =  5.6000     Uxwt  =    1.00
 A     =  6.7000     B     =  0.7500       KCt = 0.01485
 CtiniK=  1.8000     CtiniX=  3.3000

..VPAR   c>  
Enter critical amplification ratio   r>  
..VPAR   c>  
.OPERi   c>  
 XFOIL   c>  
 XFOIL   c>  
.OPERi   c>  
.OPERi   c>  
.OPERi   c>  
 M  =    0.0000
 Re =    700000

.OPERv   c>  
 Polar  1 newly created for accumulation
 Airfoil archived with polar: xfoil                                           

Enter  polar save filename  OR  <return> for no file   s>  
 Polar save file will NOT be written

Enter  polar dump filename  OR  <return> for no file   s>  
 Polar dump file will NOT be written

 Polar accumulation enabled

.OPERva   c>   Calculating unit vorticity distributions ...
 Calculating wake trajectory ...
 Calculating source influence matrix ...

 Solving BL system ...

 Initializing BL ...
    side            1  ...
 MRCHUE: Inverse mode at  52     Hk =   3.800
 MRCHUE: Inverse mode at  53     Hk =   4.376
 MRCHUE: Inverse mode at  54     Hk =   4.882
 MRCHUE: Inverse mode at  55     Hk =   5.185
    side            2  ...
 MRCHUE: Inverse mode at  37     Hk =   4.417
 MRCHUE: Inverse mode at  38     Hk =   5.533
 MRCHUE: Inverse mode at  39     Hk =   6.659
 MRCHUE: Inverse mode at  40     Hk =   2.500
 MRCHUE: Inverse mode at  75     Hk =   2.500
 MRCHUE: Inverse mode at  76     Hk =   2.500
 MRCHUE: Inverse mode at  77     Hk =   2.500
 MRCHUE: Inverse mode at  78     Hk =   2.500
 MRCHUE: Inverse mode at  79     Hk =   2.500
 MRCHUE: Inverse mode at  80     Hk =   2.500
 MRCHUE: Inverse mode at  81     Hk =   2.500
 MRCHUE: Inverse mode at  82     Hk =   2.500
 MRCHUE: Inverse mode at  83     Hk =   2.500
 MRCHUE: Inverse mode at  84     Hk =   2.500
 MRCHUE: Inverse mode at  85     Hk =   2.500
 MRCHUE: Inverse mode at  86     Hk =   2.500
 MRCHUE: Inverse mode at  87     Hk =   2.500
 MRCHUE: Inverse mode at  88     Hk =   2.500
 MRCHUE: Inverse mode at  89     Hk =   2.500
 MRCHUE: Inverse mode at  90     Hk =   2.500
 MRCHUE: Inverse mode at  91     Hk =   2.500
 MRCHUE: Inverse mode at  92     Hk =   2.500
 MRCHUE: Inverse mode at  93     Hk =   2.500
 MRCHUE: Inverse mode at  94     Hk =   2.500
 MRCHUE: Inverse mode at  95     Hk =   2.500
 MRCHUE: Inverse mode at  96     Hk =   2.500
 MRCHUE: Inverse mode at  97     Hk =   2.500
 MRCHUE: Inverse mode at  98     Hk =   2.500
 MRCHUE: Inverse mode at  99     Hk =   2.500
 MRCHUE: Inverse mode at 100     Hk =   2.500
 MRCHUE: Convergence failed at 101  side 2    Res =  0.4925E+01
 MRCHUE: Inverse mode at 102     Hk =   2.500
 MRCHUE: Inverse mode at 103     Hk =   2.500
 MRCHUE: Inverse mode at 104     Hk =   2.500
 MRCHUE: Convergence failed at 105  side 2    Res =  0.4783E+01
 MRCHUE: Inverse mode at 106     Hk =   2.500
 MRCHUE: Convergence failed at 107  side 2    Res =  0.9707E+01

 MRCHDU: Convergence failed at 101  side 2    Res =  0.1347E+01
 MRCHDU: Convergence failed at 102  side 2    Res =  0.1413E+01
 MRCHDU: Convergence failed at 103  side 2    Res =  0.1479E+01
 MRCHDU: Convergence failed at 104  side 2    Res =  0.1611E+01
 MRCHDU: Convergence failed at 105  side 2    Res =  0.4422E+01
 MRCHDU: Convergence failed at 106  side 2    Res =  0.4337E+01
 MRCHDU: Convergence failed at 107  side 2    Res =  0.8114E+01
 Side 1 forced transition at x/c =  1.0000   55
 Side 2  free  transition at x/c =  0.0135   40

   1   rms: 0.8112E+00   max: -.6800E+01   C at   55  1   RLX: 0.074
       a =-20.000      CL = -2.4589
      Cm =  0.1128     CD =  0.00857   =>   CDf =  0.00528    CDp =  0.00329

 Side 1 forced transition at x/c =  1.0000   55
 Side 2  free  transition at x/c =  0.0139   40

   2   rms: 0.6769E+00   max: -.7425E+01   C at   55  1   RLX: 0.067
       a =-20.000      CL = -2.4276
      Cm =  0.1046     CD =  0.00969   =>   CDf =  0.00530    CDp =  0.00439

 Side 1 forced transition at x/c =  1.0000   55
 Side 2  free  transition at x/c =  0.0142   40

   3   rms: 0.6192E+00   max: -.5667E+01   C at   55  1   RLX: 0.088
       a =-20.000      CL = -2.3947
      Cm =  0.0972     CD =  0.01123   =>   CDf =  0.00528    CDp =  0.00595

 Side 1 forced transition at x/c =  1.0000   55
 Side 2  free  transition at x/c =  0.0145   40

   4   rms: 0.5859E+00   max: -.4401E+01   C at   55  1   RLX: 0.114
       a =-20.000      CL = -2.3536
      Cm =  0.0895     CD =  0.01345   =>   CDf =  0.00523    CDp =  0.00822

 Side 1 forced transition at x/c =  1.0000   55
 Side 2  free  transition at x/c =  0.0149   40

   5   rms: 0.5844E+00   max: -.3499E+01   C at   55  1   RLX: 0.143
       a =-20.000      CL = -2.2982
      Cm =  0.0816     CD =  0.01668   =>   CDf =  0.00570    CDp =  0.01099

 Side 1 forced transition at x/c =  1.0000   56
 Side 2  free  transition at x/c =  0.0154   39

   6   rms: 0.8867E+00   max: -.3693E+01   C at   56  1   RLX: 0.135
       a =-20.000      CL = -2.2396
      Cm =  0.0847     CD =  0.02186   =>   CDf =  0.00509    CDp =  0.01677

 Side 1 forced transition at x/c =  1.0000   56
 Side 2  free  transition at x/c =  0.0157   39

   7   rms: 0.9167E+00   max: 0.2968E+01   D at  116  2   RLX: 0.225
       a =-20.000      CL = -2.0920
      Cm =  0.0789     CD =  0.03259   =>   CDf =  0.00500    CDp =  0.02760

 Side 1 forced transition at x/c =  1.0000   56
 Side 2  free  transition at x/c =  0.0170   40

   8   rms: 0.6899E+00   max: 0.1993E+01   D at  111  2   RLX: 0.607
       a =-20.000      CL = -1.6618
      Cm =  0.0279     CD =  0.06194   =>   CDf =  0.00569    CDp =  0.05625

 MRCHDU: Convergence failed at 117  side 2    Res =  0.3275E+01
 Side 1 forced transition at x/c =  1.0000   58
 Side 2  free  transition at x/c =  0.0206   39

   9   rms: 0.4742E+00   max: 0.1521E+01   D at  114  2   RLX: 0.832
       a =-20.000      CL = -1.2707
      Cm = -0.0069     CD =  0.10651   =>   CDf =  0.00517    CDp =  0.10134

 Side 1 forced transition at x/c =  1.0000   60
 Side 2  free  transition at x/c =  0.0246   38

  10   rms: 0.7329E-01   max: 0.5118E+00   D at   62  2
       a =-20.000      CL = -1.2266
      Cm = -0.0147     CD =  0.11005   =>   CDf =  0.00397    CDp =  0.10608

 Side 1 forced transition at x/c =  1.0000   60
 Side 2  free  transition at x/c =  0.0247   38

  11   rms: 0.8639E-02   max: -.7661E-01   D at   62  2
       a =-20.000      CL = -1.2279
      Cm = -0.0149     CD =  0.10660   =>   CDf =  0.00392    CDp =  0.10268

 Side 1 forced transition at x/c =  1.0000   60
 Side 2  free  transition at x/c =  0.0245   38

  12   rms: 0.1348E-02   max: 0.1560E-01   D at  118  2
       a =-20.000      CL = -1.2268
      Cm = -0.0150     CD =  0.10632   =>   CDf =  0.00393    CDp =  0.10239

 Side 1 forced transition at x/c =  1.0000   60
 Side 2  free  transition at x/c =  0.0245   38

  13   rms: 0.1257E-03   max: 0.1263E-02   D at  118  2
       a =-20.000      CL = -1.2267
      Cm = -0.0150     CD =  0.10631   =>   CDf =  0.00393    CDp =  0.10238

 Side 1 forced transition at x/c =  1.0000   60
 Side 2  free  transition at x/c =  0.0245   38

  14   rms: 0.8391E-05   max: 0.4275E-04   D at  118  2
       a =-20.000      CL = -1.2267
      Cm = -0.0150     CD =  0.10630   =>   CDf =  0.00393    CDp =  0.10237
 plradd ia,ip,cpol            1          59  1.87289086E-03

 Point added to stored polar  1
 Save file unspecified or not available
 Dump file unspecified or not available

.OPERva   c>  
.OPERva   c>  
.OPERva   c>   Calculating wake trajectory ...
 Calculating source influence matrix ...

 Solving BL system ...

 Side 1 forced transition at x/c =  1.0000   60
 Side 2  free  transition at x/c =  0.0245   38

   1   rms: 0.6489E-01   max: -.3617E+00   D at   58  2   RLX: 0.475
       a =-19.500      CL = -1.2334
      Cm = -0.0181     CD =  0.09981   =>   CDf =  0.00392    CDp =  0.09589

 Side 1 forced transition at x/c =  1.0000   60
 Side 2  free  transition at x/c =  0.0248   38

   2   rms: 0.3588E-01   max: -.1825E+00   D at   58  2
       a =-19.500      CL = -1.2445
      Cm = -0.0209     CD =  0.09397   =>   CDf =  0.00402    CDp =  0.08995

 Side 1 forced transition at x/c =  1.0000   60
 Side 2  free  transition at x/c =  0.0250   38

   3   rms: 0.7412E-02   max: -.3423E-01   D at  117  2
       a =-19.500      CL = -1.2511
      Cm = -0.0204     CD =  0.09493   =>   CDf =  0.00413    CDp =  0.09080

 Side 1 forced transition at x/c =  1.0000   60
 Side 2  free  transition at x/c =  0.0249   38

   4   rms: 0.7424E-03   max: -.5307E-02   D at  117  2
       a =-19.500      CL = -1.2519
      Cm = -0.0203     CD =  0.09507   =>   CDf =  0.00413    CDp =  0.09094

 Side 1 forced transition at x/c =  1.0000   60
 Side 2  free  transition at x/c =  0.0249   38

   5   rms: 0.4570E-04   max: -.2997E-03   D at  117  2
       a =-19.500      CL = -1.2519
      Cm = -0.0203     CD =  0.09508   =>   CDf =  0.00413    CDp =  0.09095
 plradd ia,ip,cpol            2          59  1.87289086E-03

 Point added to stored polar  1
 Save file unspecified or not available
 Dump file unspecified or not available

.OPERva   c>  
.OPERva   c>  
.OPERva   c>   Calculating wake trajectory ...
 Calculating source influence matrix ...

 Solving BL system ...

 Side 1 forced transition at x/c =  1.0000   60
 Side 2  free  transition at x/c =  0.0249   38

   1   rms: 0.6665E-01   max: -.3569E+00   D at   60  2   RLX: 0.516
       a =-19.000      CL = -1.2588
      Cm = -0.0234     CD =  0.08844   =>   CDf =  0.00412    CDp =  0.08432

 Side 1 forced transition at x/c =  1.0000   60
 Side 2  free  transition at x/c =  0.0252   38

   2   rms: 0.3519E-01   max: -.1725E+00   D at   60  2
       a =-19.000      CL = -1.2698
      Cm = -0.0258     CD =  0.08333   =>   CDf =  0.00424    CDp =  0.07909

 Side 1 forced transition at x/c =  1.0000   60
 Side 2  free  transition at x/c =  0.0254   38

   3   rms: 0.7074E-02   max: -.3706E-01   D at  117  2
       a =-19.000      CL = -1.2760
      Cm = -0.0253     CD =  0.08413   =>   CDf =  0.00435    CDp =  0.07978

 Side 1 forced transition at x/c =  1.0000   60
 Side 2  free  transition at x/c =  0.0253   38

   4   rms: 0.6300E-03   max: -.3802E-02   D at  116  2
       a =-19.000      CL = -1.2767
      Cm = -0.0253     CD =  0.08422   =>   CDf =  0.00435    CDp =  0.07988

 Side 1 forced transition at x/c =  1.0000   60
 Side 2  free  transition at x/c =  0.0253   38

   5   rms: 0.5324E-04   max: -.2741E-03   D at  117  2
       a =-19.000      CL = -1.2767
      Cm = -0.0253     CD =  0.08423   =>   CDf =  0.00435    CDp =  0.07988
 plradd ia,ip,cpol            3          59  1.87289086E-03

 Point added to stored polar  1
 Save file unspecified or not available
 Dump file unspecified or not available

.OPERva   c>  
.OPERva   c>  
.OPERva   c>   Calculating wake trajectory ...
 Calculating source influence matrix ...

 Solving BL system ...

 Side 1 forced transition at x/c =  1.0000   60
 Side 2  free  transition at x/c =  0.0253   38

   1   rms: 0.6371E-01   max: -.3175E+00   D at   62  2   RLX: 0.561
       a =-18.500      CL = -1.2811
      Cm = -0.0281     CD =  0.07802   =>   CDf =  0.00434    CDp =  0.07368

 Side 1 forced transition at x/c =  1.0000   60
 Side 2  free  transition at x/c =  0.0256   38

   2   rms: 0.3099E-01   max: -.1446E+00   D at   62  2
       a =-18.500      CL = -1.2892
      Cm = -0.0298     CD =  0.07408   =>   CDf =  0.00446    CDp =  0.06962

 Side 1 forced transition at x/c =  1.0000   60
 Side 2  free  transition at x/c =  0.0257   38

   3   rms: 0.8328E-02   max: -.3362E-01   D at  116  2
       a =-18.500      CL = -1.2959
      Cm = -0.0296     CD =  0.07422   =>   CDf =  0.00456    CDp =  0.06967

 Side 1 forced transition at x/c =  1.0000   60
 Side 2  free  transition at x/c =  0.0257   38

   4   rms: 0.1268E-02   max: -.6654E-02   D at  116  2
       a =-18.500      CL = -1.2970
      Cm = -0.0296     CD =  0.07427   =>   CDf =  0.00456    CDp =  0.06970

 Side 1 forced transition at x/c =  1.0000   60
 Side 2  free  transition at x/c =  0.0257   38

   5   rms: 0.1508E-03   max: -.7587E-03   D at  116  2
       a =-18.500      CL = -1.2972
      Cm = -0.0296     CD =  0.07427   =>   CDf =  0.00457    CDp =  0.06971

 Side 1 forced transition at x/c =  1.0000   60
 Side 2  free  transition at x/c =  0.0257   38

   6   rms: 0.1539E-04   max: -.6705E-04   D at  116  2
       a =-18.500      CL = -1.2972
      Cm = -0.0296     CD =  0.07428   =>   CDf =  0.00457    CDp =  0.06971
 plradd ia,ip,cpol            4          59  1.87289086E-03

 Point added to stored polar  1
 Save file unspecified or not available
 Dump file unspecified or not available

.OPERva   c>  
.OPERva   c>  
.OPERva   c>   Calculating wake trajectory ...
 Calculating source influence matrix ...

 Solving BL system ...

 Side 1 forced transition at x/c =  1.0000   60
 Side 2  free  transition at x/c =  0.0257   38

   1   rms: 0.6457E-01   max: -.3062E+00   D at   65  2   RLX: 0.613
       a =-18.000      CL = -1.3001
      Cm = -0.0323     CD =  0.06814   =>   CDf =  0.00455    CDp =  0.06358

 Side 1 forced transition at x/c =  1.0000   60
 Side 2  free  transition at x/c =  0.0259   38

   2   rms: 0.3072E-01   max: -.1414E+00   D at   67  2
       a =-18.000      CL = -1.3082
      Cm = -0.0338     CD =  0.06476   =>   CDf =  0.00469    CDp =  0.06006

 Side 1 forced transition at x/c =  1.0000   60
 Side 2  free  transition at x/c =  0.0261   39

   3   rms: 0.1179E-01   max: 0.7624E-01   D at   38  2
       a =-18.000      CL = -1.3169
      Cm = -0.0337     CD =  0.06455   =>   CDf =  0.00475    CDp =  0.05980

 Side 1 forced transition at x/c =  1.0000   60
 Side 2  free  transition at x/c =  0.0260   39

   4   rms: 0.1556E-02   max: 0.1046E-01   D at   68  2
       a =-18.000      CL = -1.3164
      Cm = -0.0335     CD =  0.06484   =>   CDf =  0.00478    CDp =  0.06006

 Side 1 forced transition at x/c =  1.0000   60
 Side 2  free  transition at x/c =  0.0260   39

   5   rms: 0.2408E-03   max: 0.9382E-03   D at  115  2
       a =-18.000      CL = -1.3162
      Cm = -0.0335     CD =  0.06483   =>   CDf =  0.00478    CDp =  0.06005

 Side 1 forced transition at x/c =  1.0000   60
 Side 2  free  transition at x/c =  0.0260   39

   6   rms: 0.1920E-04   max: 0.1068E-03   D at  115  2
       a =-18.000      CL = -1.3162
      Cm = -0.0335     CD =  0.06483   =>   CDf =  0.00478    CDp =  0.06005
 plradd ia,ip,cpol            5          59  1.87289086E-03

 Point added to stored polar  1
 Save file unspecified or not available
 Dump file unspecified or not available

.OPERva   c>  
.OPERva   c>  
.OPERva   c>   Calculating wake trajectory ...
 Calculating source influence matrix ...

 Solving BL system ...

 Side 1 forced transition at x/c =  1.0000   60
 Side 2  free  transition at x/c =  0.0260   39

   1   rms: 0.7577E-01   max: -.3536E+00   D at   68  2   RLX: 0.684
       a =-17.500      CL = -1.3238
      Cm = -0.0367     CD =  0.05761   =>   CDf =  0.00513    CDp =  0.05247

 Side 1 forced transition at x/c =  1.0000   61
 Side 2  free  transition at x/c =  0.0264   38

   2   rms: 0.4233E-01   max: -.5481E+00   T at    2  1   RLX: 0.912
       a =-17.500      CL = -1.3316
      Cm = -0.0373     CD =  0.05572   =>   CDf =  0.00490    CDp =  0.05082

 Side 1 forced transition at x/c =  1.0000   61
 Side 2  free  transition at x/c =  0.0264   38

   3   rms: 0.6479E-02   max: -.2583E-01   D at  113  2
       a =-17.500      CL = -1.3360
      Cm = -0.0372     CD =  0.05555   =>   CDf =  0.00497    CDp =  0.05058

 Side 1 forced transition at x/c =  1.0000   61
 Side 2  free  transition at x/c =  0.0264   38

   4   rms: 0.8297E-03   max: -.3909E-02   D at  113  2
       a =-17.500      CL = -1.3367
      Cm = -0.0371     CD =  0.05558   =>   CDf =  0.00498    CDp =  0.05060

 Side 1 forced transition at x/c =  1.0000   61
 Side 2  free  transition at x/c =  0.0264   38

   5   rms: 0.5970E-04   max: -.3069E-03   D at  114  2
       a =-17.500      CL = -1.3368
      Cm = -0.0371     CD =  0.05558   =>   CDf =  0.00498    CDp =  0.05060
 plradd ia,ip,cpol            6          60  1.87289086E-03

 Point added to stored polar  1
 Save file unspecified or not available
 Dump file unspecified or not available

.OPERva   c>  
.OPERva   c>  
.OPERva   c>   Calculating wake trajectory ...
 Calculating source influence matrix ...

 Solving BL system ...

 Side 1 forced transition at x/c =  1.0000   61
 Side 2  free  transition at x/c =  0.0264   38

   1   rms: 0.7475E-01   max: -.3320E+00   D at   70  2   RLX: 0.761
       a =-17.000      CL = -1.3406
      Cm = -0.0399     CD =  0.04885   =>   CDf =  0.00497    CDp =  0.04388

 Side 1 forced transition at x/c =  1.0000   61
 Side 2  free  transition at x/c =  0.0268   38

   2   rms: 0.2088E-01   max: -.9787E-01   D at   69  2
       a =-17.000      CL = -1.3454
      Cm = -0.0399     CD =  0.04784   =>   CDf =  0.00512    CDp =  0.04273

 Side 1 forced transition at x/c =  1.0000   61
 Side 2  free  transition at x/c =  0.0269   38

   3   rms: 0.2419E-02   max: -.1509E-01   D at  113  2
       a =-17.000      CL = -1.3476
      Cm = -0.0397     CD =  0.04800   =>   CDf =  0.00516    CDp =  0.04284

 Side 1 forced transition at x/c =  1.0000   61
 Side 2  free  transition at x/c =  0.0269   38

   4   rms: 0.1064E-03   max: -.5588E-03   D at  112  2
       a =-17.000      CL = -1.3477
      Cm = -0.0396     CD =  0.04801   =>   CDf =  0.00516    CDp =  0.04284

 Side 1 forced transition at x/c =  1.0000   61
 Side 2  free  transition at x/c =  0.0269   38

   5   rms: 0.3177E-05   max: -.1485E-04   D at  113  2
       a =-17.000      CL = -1.3477
      Cm = -0.0396     CD =  0.04801   =>   CDf =  0.00516    CDp =  0.04284
 plradd ia,ip,cpol            7          60  2.79372674E-03

 Point added to stored polar  1
 Save file unspecified or not available
 Dump file unspecified or not available

.OPERva   c>  
.OPERva   c>  
.OPERva   c>   Calculating wake trajectory ...
 Calculating source influence matrix ...

 Solving BL system ...

 Side 1 forced transition at x/c =  1.0000   61
 Side 2  free  transition at x/c =  0.0269   38

   1   rms: 0.7150E-01   max: -.2943E+00   D at   73  2   RLX: 0.842
       a =-16.500      CL = -1.3456
      Cm = -0.0419     CD =  0.04208   =>   CDf =  0.00516    CDp =  0.03693

 Side 1 forced transition at x/c =  1.0000   61
 Side 2  free  transition at x/c =  0.0274   38

   2   rms: 0.1324E-01   max: -.6587E-01   D at   74  2
       a =-16.500      CL = -1.3477
      Cm = -0.0414     CD =  0.04188   =>   CDf =  0.00530    CDp =  0.03657

 Side 1 forced transition at x/c =  1.0000   61
 Side 2  free  transition at x/c =  0.0275   38

   3   rms: 0.1532E-02   max: -.8688E-02   D at  112  2
       a =-16.500      CL = -1.3491
      Cm = -0.0413     CD =  0.04190   =>   CDf =  0.00533    CDp =  0.03657

 Side 1 forced transition at x/c =  1.0000   61
 Side 2  free  transition at x/c =  0.0274   38

   4   rms: 0.9550E-04   max: -.5892E-03   D at  112  2
       a =-16.500      CL = -1.3492
      Cm = -0.0413     CD =  0.04190   =>   CDf =  0.00533    CDp =  0.03657
 plradd ia,ip,cpol            8          60  2.79372674E-03

 Point added to stored polar  1
 Save file unspecified or not available
 Dump file unspecified or not available

.OPERva   c>  
.OPERva   c>  
.OPERva   c>   Calculating wake trajectory ...
 Calculating source influence matrix ...

 Solving BL system ...

 Side 1 forced transition at x/c =  1.0000   61
 Side 2  free  transition at x/c =  0.0274   38

   1   rms: 0.6857E-01   max: -.2557E+00   D at   76  2   RLX: 0.926
       a =-16.000      CL = -1.3405
      Cm = -0.0428     CD =  0.03677   =>   CDf =  0.00532    CDp =  0.03145

 Side 1 forced transition at x/c =  1.0000   61
 Side 2  free  transition at x/c =  0.0281   38

   2   rms: 0.8153E-02   max: -.4776E-01   D at   75  2
       a =-16.000      CL = -1.3425
      Cm = -0.0422     CD =  0.03697   =>   CDf =  0.00548    CDp =  0.03149

 Side 1 forced transition at x/c =  1.0000   61
 Side 2  free  transition at x/c =  0.0281   38

   3   rms: 0.6872E-03   max: -.3704E-02   D at  111  2
       a =-16.000      CL = -1.3432
      Cm = -0.0421     CD =  0.03697   =>   CDf =  0.00549    CDp =  0.03148

 Side 1 forced transition at x/c =  1.0000   61
 Side 2  free  transition at x/c =  0.0281   38

   4   rms: 0.3225E-04   max: -.1695E-03   D at  111  2
       a =-16.000      CL = -1.3432
      Cm = -0.0421     CD =  0.03697   =>   CDf =  0.00549    CDp =  0.03148
 plradd ia,ip,cpol            9          60  2.79372674E-03

 Point added to stored polar  1
 Save file unspecified or not available
 Dump file unspecified or not available

.OPERva   c>  
.OPERva   c>  
.OPERva   c>   Calculating wake trajectory ...
 Calculating source influence matrix ...

 Solving BL system ...

 Side 1 forced transition at x/c =  1.0000   61
 Side 2  free  transition at x/c =  0.0281   38

   1   rms: 0.6726E-01   max: -.2295E+00   D at   79  2
       a =-15.500      CL = -1.3287
      Cm = -0.0429     CD =  0.03250   =>   CDf =  0.00583    CDp =  0.02667

 Side 1 forced transition at x/c =  1.0000   62
 Side 2  free  transition at x/c =  0.0287   37

   2   rms: 0.5145E-02   max: -.3268E-01   D at   77  2
       a =-15.500      CL = -1.3318
      Cm = -0.0422     CD =  0.03291   =>   CDf =  0.00565    CDp =  0.02725

 Side 1 forced transition at x/c =  1.0000   62
 Side 2  free  transition at x/c =  0.0288   37

   3   rms: 0.3946E-03   max: 0.3544E-02   D at    4  1
       a =-15.500      CL = -1.3320
      Cm = -0.0422     CD =  0.03291   =>   CDf =  0.00565    CDp =  0.02725

 Side 1 forced transition at x/c =  1.0000   62
 Side 2  free  transition at x/c =  0.0288   37

   4   rms: 0.8507E-05   max: 0.4028E-04   D at  112  2
       a =-15.500      CL = -1.3320
      Cm = -0.0422     CD =  0.03291   =>   CDf =  0.00565    CDp =  0.02725
 plradd ia,ip,cpol           10          61  2.79372674E-03

 Point added to stored polar  1
 Save file unspecified or not available
 Dump file unspecified or not available

.OPERva   c>  
.OPERva   c>  
.OPERva   c>   Calculating wake trajectory ...
 Calculating source influence matrix ...

 Solving BL system ...

 Side 1 forced transition at x/c =  1.0000   62
 Side 2  free  transition at x/c =  0.0288   37

   1   rms: 0.6673E-01   max: -.2105E+00   D at   81  2
       a =-15.000      CL = -1.3140
      Cm = -0.0423     CD =  0.02924   =>   CDf =  0.00565    CDp =  0.02360

 Side 1 forced transition at x/c =  1.0000   62
 Side 2  free  transition at x/c =  0.0295   37

   2   rms: 0.2739E-02   max: -.2165E-01   D at   80  2
       a =-15.000      CL = -1.3157
      Cm = -0.0416     CD =  0.02961   =>   CDf =  0.00581    CDp =  0.02380

 Side 1 forced transition at x/c =  1.0000   62
 Side 2  free  transition at x/c =  0.0295   37

   3   rms: 0.8126E-04   max: 0.4538E-03   D at  112  2
       a =-15.000      CL = -1.3158
      Cm = -0.0416     CD =  0.02961   =>   CDf =  0.00581    CDp =  0.02380
 plradd ia,ip,cpol           11          61  3.91236925E-03

 Point added to stored polar  1
 Save file unspecified or not available
 Dump file unspecified or not available

.OPERva   c>  
.OPERva   c>  
.OPERva   c>   Calculating wake trajectory ...
 Calculating source influence matrix ...

 Solving BL system ...

 Side 1 forced transition at x/c =  1.0000   62
 Side 2  free  transition at x/c =  0.0295   37

   1   rms: 0.6567E-01   max: -.1881E+00   D at   83  2
       a =-14.500      CL = -1.2940
      Cm = -0.0410     CD =  0.02673   =>   CDf =  0.00580    CDp =  0.02092

 Side 1 forced transition at x/c =  1.0000   62
 Side 2  free  transition at x/c =  0.0301   38

   2   rms: 0.3848E-02   max: -.1755E-01   D at   88  2
       a =-14.500      CL = -1.2973
      Cm = -0.0404     CD =  0.02682   =>   CDf =  0.00595    CDp =  0.02087

 Side 1 forced transition at x/c =  1.0000   62
 Side 2  free  transition at x/c =  0.0301   38

   3   rms: 0.1022E-03   max: 0.1221E-02   D at   88  2
       a =-14.500      CL = -1.2973
      Cm = -0.0404     CD =  0.02682   =>   CDf =  0.00596    CDp =  0.02086

 Side 1 forced transition at x/c =  1.0000   62
 Side 2  free  transition at x/c =  0.0301   38

   4   rms: 0.1012E-05   max: 0.9469E-05   D at   88  2
       a =-14.500      CL = -1.2973
      Cm = -0.0404     CD =  0.02682   =>   CDf =  0.00596    CDp =  0.02086
 plradd ia,ip,cpol           12          61  3.91236925E-03

 Point added to stored polar  1
 Save file unspecified or not available
 Dump file unspecified or not available

.OPERva   c>  
.OPERva   c>  
.OPERva   c>   Calculating wake trajectory ...
 Calculating source influence matrix ...

 Solving BL system ...

 Side 1 forced transition at x/c =  1.0000   62
 Side 2  free  transition at x/c =  0.0301   38

   1   rms: 0.7063E-01   max: -.2202E+00   D at   87  2
       a =-14.000      CL = -1.2816
      Cm = -0.0387     CD =  0.02384   =>   CDf =  0.00628    CDp =  0.01756

 Side 1 forced transition at x/c =  1.0000   63
 Side 2  free  transition at x/c =  0.0311   37

   2   rms: 0.4874E-02   max: 0.3265E-01   D at   89  2
       a =-14.000      CL = -1.2802
      Cm = -0.0381     CD =  0.02428   =>   CDf =  0.00607    CDp =  0.01821

 Side 1 forced transition at x/c =  1.0000   63
 Side 2  free  transition at x/c =  0.0310   37

   3   rms: 0.3342E-03   max: 0.2507E-02   D at    4  1
       a =-14.000      CL = -1.2800
      Cm = -0.0381     CD =  0.02429   =>   CDf =  0.00606    CDp =  0.01823

 Side 1 forced transition at x/c =  1.0000   63
 Side 2  free  transition at x/c =  0.0310   37

   4   rms: 0.5990E-05   max: 0.3540E-04   D at   90  2
       a =-14.000      CL = -1.2800
      Cm = -0.0381     CD =  0.02429   =>   CDf =  0.00606    CDp =  0.01823
 plradd ia,ip,cpol           13          62  3.91236925E-03

 Point added to stored polar  1
 Save file unspecified or not available
 Dump file unspecified or not available

.OPERva   c>  
.OPERva   c>  
.OPERva   c>   Calculating wake trajectory ...
 Calculating source influence matrix ...

 Solving BL system ...

 Side 1 forced transition at x/c =  1.0000   63
 Side 2  free  transition at x/c =  0.0310   37

   1   rms: 0.6628E-01   max: -.1751E+00   D at   88  2
       a =-13.500      CL = -1.2571
      Cm = -0.0358     CD =  0.02226   =>   CDf =  0.00606    CDp =  0.01621

 Side 1 forced transition at x/c =  1.0000   63
 Side 2  free  transition at x/c =  0.0320   37

   2   rms: 0.1905E-02   max: 0.2143E-01   D at  106  2
       a =-13.500      CL = -1.2570
      Cm = -0.0354     CD =  0.02244   =>   CDf =  0.00615    CDp =  0.01629

 Side 1 forced transition at x/c =  1.0000   63
 Side 2  free  transition at x/c =  0.0320   37

   3   rms: 0.3175E-04   max: 0.3044E-03   D at  106  2
       a =-13.500      CL = -1.2570
      Cm = -0.0354     CD =  0.02245   =>   CDf =  0.00615    CDp =  0.01630
 plradd ia,ip,cpol           14          62  5.24310162E-03

 Point added to stored polar  1
 Save file unspecified or not available
 Dump file unspecified or not available

.OPERva   c>  
.OPERva   c>  
.OPERva   c>   Calculating wake trajectory ...
 Calculating source influence matrix ...

 Solving BL system ...

 Side 1 forced transition at x/c =  1.0000   63
 Side 2  free  transition at x/c =  0.0320   37

   1   rms: 0.6468E-01   max: -.1516E+00   D at   89  2
       a =-13.000      CL = -1.2309
      Cm = -0.0326     CD =  0.02081   =>   CDf =  0.00614    CDp =  0.01467

 Side 1 forced transition at x/c =  1.0000   63
 Side 2  free  transition at x/c =  0.0329   37

   2   rms: 0.3633E-02   max: -.4262E-01   D at   37  2
       a =-13.000      CL = -1.2313
      Cm = -0.0322     CD =  0.02098   =>   CDf =  0.00625    CDp =  0.01474

 Side 1 forced transition at x/c =  1.0000   63
 Side 2  free  transition at x/c =  0.0331   37

   3   rms: 0.6322E-04   max: 0.5632E-03   C at   37  2
       a =-13.000      CL = -1.2314
      Cm = -0.0322     CD =  0.02099   =>   CDf =  0.00625    CDp =  0.01474
 plradd ia,ip,cpol           15          62  5.24310162E-03

 Point added to stored polar  1
 Save file unspecified or not available
 Dump file unspecified or not available

.OPERva   c>  
.OPERva   c>  
.OPERva   c>   Calculating wake trajectory ...
 Calculating source influence matrix ...

 Solving BL system ...

 Side 1 forced transition at x/c =  1.0000   63
 Side 2  free  transition at x/c =  0.0330   37

   1   rms: 0.6416E-01   max: -.1376E+00   D at   91  2
       a =-12.500      CL = -1.2042
      Cm = -0.0289     CD =  0.01967   =>   CDf =  0.00653    CDp =  0.01314

 Side 1 forced transition at x/c =  1.0000   64
 Side 2  free  transition at x/c =  0.0339   36

   2   rms: 0.4667E-02   max: 0.5878E-01   C at   64  1
       a =-12.500      CL = -1.2054
      Cm = -0.0283     CD =  0.01981   =>   CDf =  0.00635    CDp =  0.01346

 Side 1 forced transition at x/c =  1.0000   64
 Side 2  free  transition at x/c =  0.0340   36

   3   rms: 0.2626E-03   max: 0.2482E-02   C at   64  1
       a =-12.500      CL = -1.2055
      Cm = -0.0283     CD =  0.01982   =>   CDf =  0.00635    CDp =  0.01347

 Side 1 forced transition at x/c =  1.0000   64
 Side 2  free  transition at x/c =  0.0340   36

   4   rms: 0.2230E-05   max: 0.1778E-04   C at   64  1
       a =-12.500      CL = -1.2055
      Cm = -0.0283     CD =  0.01982   =>   CDf =  0.00635    CDp =  0.01347
 plradd ia,ip,cpol           16          63  6.80395542E-03

 Point added to stored polar  1
 Save file unspecified or not available
 Dump file unspecified or not available

.OPERva   c>  
.OPERva   c>  
.OPERva   c>   Calculating wake trajectory ...
 Calculating source influence matrix ...

 Solving BL system ...

 Side 1 forced transition at x/c =  1.0000   64
 Side 2  free  transition at x/c =  0.0340   36

   1   rms: 0.6270E-01   max: 0.3633E+00   C at   64  1
       a =-12.000      CL = -1.1791
      Cm = -0.0241     CD =  0.01883   =>   CDf =  0.00634    CDp =  0.01249

 Side 1 forced transition at x/c =  1.0000   64
 Side 2  free  transition at x/c =  0.0351   37

   2   rms: 0.5672E-02   max: 0.9824E-01   C at   64  1
       a =-12.000      CL = -1.1815
      Cm = -0.0235     CD =  0.01878   =>   CDf =  0.00642    CDp =  0.01236

 Side 1 forced transition at x/c =  1.0000   64
 Side 2  free  transition at x/c =  0.0351   37

   3   rms: 0.4952E-03   max: 0.9247E-02   C at   64  1
       a =-12.000      CL = -1.1817
      Cm = -0.0235     CD =  0.01879   =>   CDf =  0.00642    CDp =  0.01237

 Side 1 forced transition at x/c =  1.0000   64
 Side 2  free  transition at x/c =  0.0351   37

   4   rms: 0.1121E-04   max: 0.1443E-03   C at   64  1
       a =-12.000      CL = -1.1817
      Cm = -0.0235     CD =  0.01879   =>   CDf =  0.00642    CDp =  0.01237
 plradd ia,ip,cpol           17          63  6.80395542E-03

 Point added to stored polar  1
 Save file unspecified or not available
 Dump file unspecified or not available

.OPERva   c>  
.OPERva   c>  
.OPERva   c>   Calculating wake trajectory ...
 Calculating source influence matrix ...

 Solving BL system ...

 Side 1 forced transition at x/c =  1.0000   64
 Side 2  free  transition at x/c =  0.0351   37

   1   rms: 0.6574E-01   max: 0.3886E+00   C at   64  1
       a =-11.500      CL = -1.1555
      Cm = -0.0190     CD =  0.01773   =>   CDf =  0.00668    CDp =  0.01106

 Side 1 forced transition at x/c =  1.0000   65
 Side 2  free  transition at x/c =  0.0368   36

   2   rms: 0.7146E-02   max: 0.9799E-01   C at   65  1
       a =-11.500      CL = -1.1558
      Cm = -0.0187     CD =  0.01786   =>   CDf =  0.00646    CDp =  0.01140

 Side 1 forced transition at x/c =  1.0000   65
 Side 2  free  transition at x/c =  0.0367   36

   3   rms: 0.4988E-03   max: 0.6086E-02   C at   65  1
       a =-11.500      CL = -1.1560
      Cm = -0.0187     CD =  0.01786   =>   CDf =  0.00646    CDp =  0.01140

 Side 1 forced transition at x/c =  1.0000   65
 Side 2  free  transition at x/c =  0.0367   36

   4   rms: 0.1125E-04   max: 0.1091E-03   C at   65  1
       a =-11.500      CL = -1.1560
      Cm = -0.0187     CD =  0.01786   =>   CDf =  0.00646    CDp =  0.01140
 plradd ia,ip,cpol           18          64  8.61636735E-03

 Point added to stored polar  1
 Save file unspecified or not available
 Dump file unspecified or not available

.OPERva   c>  
.OPERva   c>  
.OPERva   c>   Calculating wake trajectory ...
 Calculating source influence matrix ...

 Solving BL system ...

 Side 1 forced transition at x/c =  1.0000   65
 Side 2  free  transition at x/c =  0.0367   36

   1   rms: 0.6511E-01   max: 0.3740E+00   C at   65  1
       a =-11.000      CL = -1.1291
      Cm = -0.0139     CD =  0.01701   =>   CDf =  0.00645    CDp =  0.01056

 Side 1 forced transition at x/c =  1.0000   65
 Side 2  free  transition at x/c =  0.0380   36

   2   rms: 0.6540E-02   max: 0.5527E-01   C at   65  1
       a =-11.000      CL = -1.1297
      Cm = -0.0137     CD =  0.01710   =>   CDf =  0.00651    CDp =  0.01059

 Side 1 forced transition at x/c =  1.0000   65
 Side 2  free  transition at x/c =  0.0382   36

   3   rms: 0.5189E-03   max: 0.4593E-02   C at   65  1
       a =-11.000      CL = -1.1299
      Cm = -0.0136     CD =  0.01711   =>   CDf =  0.00651    CDp =  0.01060

 Side 1 forced transition at x/c =  1.0000   65
 Side 2  free  transition at x/c =  0.0382   36

   4   rms: 0.1405E-04   max: 0.1059E-03   C at   65  1
       a =-11.000      CL = -1.1299
      Cm = -0.0136     CD =  0.01711   =>   CDf =  0.00651    CDp =  0.01060
 plradd ia,ip,cpol           19          64  8.61636735E-03

 Point added to stored polar  1
 Save file unspecified or not available
 Dump file unspecified or not available

.OPERva   c>  
.OPERva   c>  
.OPERva   c>   Calculating wake trajectory ...
 Calculating source influence matrix ...

 Solving BL system ...

 Side 1 forced transition at x/c =  1.0000   65
 Side 2  free  transition at x/c =  0.0382   36

   1   rms: 0.6501E-01   max: 0.2946E+00   C at   65  1
       a =-10.500      CL = -1.1033
      Cm = -0.0086     CD =  0.01638   =>   CDf =  0.00674    CDp =  0.00964

 Side 1  free  transition at x/c =  0.9840   65
 Side 2  free  transition at x/c =  0.0395   36

   2   rms: 0.4207E-01   max: -.4823E+00   D at   66  1
       a =-10.500      CL = -1.0757
      Cm = -0.0144     CD =  0.01607   =>   CDf =  0.00658    CDp =  0.00949

 Side 1 forced transition at x/c =  1.0000   66
 Side 2  free  transition at x/c =  0.0407   36

   3   rms: 0.3594E-01   max: 0.4134E+00   C at   66  1
       a =-10.500      CL = -1.1026
      Cm = -0.0087     CD =  0.01640   =>   CDf =  0.00655    CDp =  0.00985

 Side 1  free  transition at x/c =  0.9820   65
 Side 2  free  transition at x/c =  0.0399   36

   4   rms: 0.4370E-01   max: -.5070E+00   D at   66  1   RLX: 0.986
       a =-10.500      CL = -1.0765
      Cm = -0.0142     CD =  0.01609   =>   CDf =  0.00657    CDp =  0.00952

 Side 1 forced transition at x/c =  1.0000   66
 Side 2  free  transition at x/c =  0.0405   36

   5   rms: 0.3415E-01   max: 0.3623E+00   C at   66  1
       a =-10.500      CL = -1.1027
      Cm = -0.0087     CD =  0.01641   =>   CDf =  0.00656    CDp =  0.00986

 Side 1  free  transition at x/c =  0.9818   65
 Side 2  free  transition at x/c =  0.0398   36

   6   rms: 0.4413E-01   max: -.5111E+00   D at   66  1   RLX: 0.978
       a =-10.500      CL = -1.0767
      Cm = -0.0142     CD =  0.01609   =>   CDf =  0.00657    CDp =  0.00952

 Side 1 forced transition at x/c =  1.0000   66
 Side 2  free  transition at x/c =  0.0405   36

   7   rms: 0.3382E-01   max: 0.3532E+00   C at   66  1
       a =-10.500      CL = -1.1027
      Cm = -0.0087     CD =  0.01641   =>   CDf =  0.00656    CDp =  0.00986

 Side 1  free  transition at x/c =  0.9817   65
 Side 2  free  transition at x/c =  0.0398   36

   8   rms: 0.4426E-01   max: -.5123E+00   D at   66  1   RLX: 0.976
       a =-10.500      CL = -1.0768
      Cm = -0.0142     CD =  0.01609   =>   CDf =  0.00657    CDp =  0.00952

 Side 1 forced transition at x/c =  1.0000   66
 Side 2  free  transition at x/c =  0.0405   36

   9   rms: 0.3373E-01   max: 0.3506E+00   C at   66  1
       a =-10.500      CL = -1.1027
      Cm = -0.0087     CD =  0.01642   =>   CDf =  0.00656    CDp =  0.00986

 Side 1  free  transition at x/c =  0.9817   65
 Side 2  free  transition at x/c =  0.0398   36

  10   rms: 0.4430E-01   max: -.5126E+00   D at   66  1   RLX: 0.975
       a =-10.500      CL = -1.0768
      Cm = -0.0141     CD =  0.01609   =>   CDf =  0.00657    CDp =  0.00952

 Side 1 forced transition at x/c =  1.0000   66
 Side 2  free  transition at x/c =  0.0405   36

  11   rms: 0.3371E-01   max: 0.3500E+00   C at   66  1
       a =-10.500      CL = -1.1027
      Cm = -0.0087     CD =  0.01642   =>   CDf =  0.00656    CDp =  0.00986

 Side 1  free  transition at x/c =  0.9817   65
 Side 2  free  transition at x/c =  0.0398   36

  12   rms: 0.4431E-01   max: -.5127E+00   D at   66  1   RLX: 0.975
       a =-10.500      CL = -1.0768
      Cm = -0.0141     CD =  0.01609   =>   CDf =  0.00657    CDp =  0.00952

 Side 1 forced transition at x/c =  1.0000   66
 Side 2  free  transition at x/c =  0.0405   36

  13   rms: 0.3370E-01   max: 0.3498E+00   C at   66  1
       a =-10.500      CL = -1.1027
      Cm = -0.0087     CD =  0.01642   =>   CDf =  0.00656    CDp =  0.00986

 Side 1  free  transition at x/c =  0.9817   65
 Side 2  free  transition at x/c =  0.0398   36

  14   rms: 0.4431E-01   max: -.5127E+00   D at   66  1   RLX: 0.975
       a =-10.500      CL = -1.0768
      Cm = -0.0141     CD =  0.01609   =>   CDf =  0.00657    CDp =  0.00952

 Side 1 forced transition at x/c =  1.0000   66
 Side 2  free  transition at x/c =  0.0405   36

  15   rms: 0.3370E-01   max: 0.3498E+00   C at   66  1
       a =-10.500      CL = -1.1027
      Cm = -0.0087     CD =  0.01642   =>   CDf =  0.00656    CDp =  0.00986

 Side 1  free  transition at x/c =  0.9817   65
 Side 2  free  transition at x/c =  0.0398   36

  16   rms: 0.4431E-01   max: -.5127E+00   D at   66  1   RLX: 0.975
       a =-10.500      CL = -1.0768
      Cm = -0.0141     CD =  0.01609   =>   CDf =  0.00657    CDp =  0.00952

 Side 1 forced transition at x/c =  1.0000   66
 Side 2  free  transition at x/c =  0.0405   36

  17   rms: 0.3370E-01   max: 0.3497E+00   C at   66  1
       a =-10.500      CL = -1.1027
      Cm = -0.0087     CD =  0.01642   =>   CDf =  0.00656    CDp =  0.00986

 Side 1  free  transition at x/c =  0.9817   65
 Side 2  free  transition at x/c =  0.0398   36

  18   rms: 0.4431E-01   max: -.5127E+00   D at   66  1   RLX: 0.975
       a =-10.500      CL = -1.0768
      Cm = -0.0141     CD =  0.01609   =>   CDf =  0.00657    CDp =  0.00952

 Side 1 forced transition at x/c =  1.0000   66
 Side 2  free  transition at x/c =  0.0405   36

  19   rms: 0.3370E-01   max: 0.3497E+00   C at   66  1
       a =-10.500      CL = -1.1027
      Cm = -0.0087     CD =  0.01642   =>   CDf =  0.00656    CDp =  0.00986

 Side 1  free  transition at x/c =  0.9817   65
 Side 2  free  transition at x/c =  0.0398   36

  20   rms: 0.4431E-01   max: -.5127E+00   D at   66  1   RLX: 0.975
       a =-10.500      CL = -1.0768
      Cm = -0.0141     CD =  0.01609   =>   CDf =  0.00657    CDp =  0.00952

 Side 1 forced transition at x/c =  1.0000   66
 Side 2  free  transition at x/c =  0.0405   36

  21   rms: 0.3370E-01   max: 0.3497E+00   C at   66  1
       a =-10.500      CL = -1.1027
      Cm = -0.0087     CD =  0.01642   =>   CDf =  0.00656    CDp =  0.00986

 Side 1  free  transition at x/c =  0.9817   65
 Side 2  free  transition at x/c =  0.0398   36

  22   rms: 0.4431E-01   max: -.5127E+00   D at   66  1   RLX: 0.975
       a =-10.500      CL = -1.0768
      Cm = -0.0141     CD =  0.01609   =>   CDf =  0.00657    CDp =  0.00952

 Side 1 forced transition at x/c =  1.0000   66
 Side 2  free  transition at x/c =  0.0405   36

  23   rms: 0.3370E-01   max: 0.3497E+00   C at   66  1
       a =-10.500      CL = -1.1027
      Cm = -0.0087     CD =  0.01642   =>   CDf =  0.00656    CDp =  0.00986

 Side 1  free  transition at x/c =  0.9817   65
 Side 2  free  transition at x/c =  0.0398   36

  24   rms: 0.4431E-01   max: -.5127E+00   D at   66  1   RLX: 0.975
       a =-10.500      CL = -1.0768
      Cm = -0.0141     CD =  0.01609   =>   CDf =  0.00657    CDp =  0.00952

 Side 1 forced transition at x/c =  1.0000   66
 Side 2  free  transition at x/c =  0.0405   36

  25   rms: 0.3370E-01   max: 0.3497E+00   C at   66  1
       a =-10.500      CL = -1.1027
      Cm = -0.0087     CD =  0.01642   =>   CDf =  0.00656    CDp =  0.00986

 Side 1  free  transition at x/c =  0.9817   65
 Side 2  free  transition at x/c =  0.0398   36

  26   rms: 0.4431E-01   max: -.5127E+00   D at   66  1   RLX: 0.975
       a =-10.500      CL = -1.0768
      Cm = -0.0141     CD =  0.01609   =>   CDf =  0.00657    CDp =  0.00952

 Side 1 forced transition at x/c =  1.0000   66
 Side 2  free  transition at x/c =  0.0405   36

  27   rms: 0.3370E-01   max: 0.3497E+00   C at   66  1
       a =-10.500      CL = -1.1027
      Cm = -0.0087     CD =  0.01642   =>   CDf =  0.00656    CDp =  0.00986

 Side 1  free  transition at x/c =  0.9817   65
 Side 2  free  transition at x/c =  0.0398   36

  28   rms: 0.4431E-01   max: -.5127E+00   D at   66  1   RLX: 0.975
       a =-10.500      CL = -1.0768
      Cm = -0.0141     CD =  0.01609   =>   CDf =  0.00657    CDp =  0.00952

 Side 1 forced transition at x/c =  1.0000   66
 Side 2  free  transition at x/c =  0.0405   36

  29   rms: 0.3370E-01   max: 0.3497E+00   C at   66  1
       a =-10.500      CL = -1.1027
      Cm = -0.0087     CD =  0.01642   =>   CDf =  0.00656    CDp =  0.00986

 Side 1  free  transition at x/c =  0.9817   65
 Side 2  free  transition at x/c =  0.0398   36

  30   rms: 0.4431E-01   max: -.5127E+00   D at   66  1   RLX: 0.975
       a =-10.500      CL = -1.0768
      Cm = -0.0141     CD =  0.01609   =>   CDf =  0.00657    CDp =  0.00952

 Side 1 forced transition at x/c =  1.0000   66
 Side 2  free  transition at x/c =  0.0405   36

  31   rms: 0.3370E-01   max: 0.3497E+00   C at   66  1
       a =-10.500      CL = -1.1027
      Cm = -0.0087     CD =  0.01642   =>   CDf =  0.00656    CDp =  0.00986

 Side 1  free  transition at x/c =  0.9817   65
 Side 2  free  transition at x/c =  0.0398   36

  32   rms: 0.4431E-01   max: -.5127E+00   D at   66  1   RLX: 0.975
       a =-10.500      CL = -1.0768
      Cm = -0.0141     CD =  0.01609   =>   CDf =  0.00657    CDp =  0.00952

 Side 1 forced transition at x/c =  1.0000   66
 Side 2  free  transition at x/c =  0.0405   36

  33   rms: 0.3370E-01   max: 0.3497E+00   C at   66  1
       a =-10.500      CL = -1.1027
      Cm = -0.0087     CD =  0.01642   =>   CDf =  0.00656    CDp =  0.00986

 Side 1  free  transition at x/c =  0.9817   65
 Side 2  free  transition at x/c =  0.0398   36

  34   rms: 0.4431E-01   max: -.5127E+00   D at   66  1   RLX: 0.975
       a =-10.500      CL = -1.0768
      Cm = -0.0141     CD =  0.01609   =>   CDf =  0.00657    CDp =  0.00952

 Side 1 forced transition at x/c =  1.0000   66
 Side 2  free  transition at x/c =  0.0405   36

  35   rms: 0.3370E-01   max: 0.3497E+00   C at   66  1
       a =-10.500      CL = -1.1027
      Cm = -0.0087     CD =  0.01642   =>   CDf =  0.00656    CDp =  0.00986

 Side 1  free  transition at x/c =  0.9817   65
 Side 2  free  transition at x/c =  0.0398   36

  36   rms: 0.4431E-01   max: -.5127E+00   D at   66  1   RLX: 0.975
       a =-10.500      CL = -1.0768
      Cm = -0.0141     CD =  0.01609   =>   CDf =  0.00657    CDp =  0.00952

 Side 1 forced transition at x/c =  1.0000   66
 Side 2  free  transition at x/c =  0.0405   36

  37   rms: 0.3370E-01   max: 0.3497E+00   C at   66  1
       a =-10.500      CL = -1.1027
      Cm = -0.0087     CD =  0.01642   =>   CDf =  0.00656    CDp =  0.00986

 Side 1  free  transition at x/c =  0.9817   65
 Side 2  free  transition at x/c =  0.0398   36

  38   rms: 0.4431E-01   max: -.5127E+00   D at   66  1   RLX: 0.975
       a =-10.500      CL = -1.0768
      Cm = -0.0141     CD =  0.01609   =>   CDf =  0.00657    CDp =  0.00952

 Side 1 forced transition at x/c =  1.0000   66
 Side 2  free  transition at x/c =  0.0405   36

  39   rms: 0.3370E-01   max: 0.3497E+00   C at   66  1
       a =-10.500      CL = -1.1027
      Cm = -0.0087     CD =  0.01642   =>   CDf =  0.00656    CDp =  0.00986

 Side 1  free  transition at x/c =  0.9817   65
 Side 2  free  transition at x/c =  0.0398   36

  40   rms: 0.4431E-01   max: -.5127E+00   D at   66  1   RLX: 0.975
       a =-10.500      CL = -1.0768
      Cm = -0.0141     CD =  0.01609   =>   CDf =  0.00657    CDp =  0.00952

 Side 1 forced transition at x/c =  1.0000   66
 Side 2  free  transition at x/c =  0.0405   36

  41   rms: 0.3370E-01   max: 0.3498E+00   C at   66  1
       a =-10.500      CL = -1.1027
      Cm = -0.0087     CD =  0.01642   =>   CDf =  0.00656    CDp =  0.00986

 Side 1  free  transition at x/c =  0.9817   65
 Side 2  free  transition at x/c =  0.0398   36

  42   rms: 0.4431E-01   max: -.5127E+00   D at   66  1   RLX: 0.975
       a =-10.500      CL = -1.0768
      Cm = -0.0141     CD =  0.01609   =>   CDf =  0.00657    CDp =  0.00952

 Side 1 forced transition at x/c =  1.0000   66
 Side 2  free  transition at x/c =  0.0405   36

  43   rms: 0.3370E-01   max: 0.3497E+00   C at   66  1
       a =-10.500      CL = -1.1027
      Cm = -0.0087     CD =  0.01642   =>   CDf =  0.00656    CDp =  0.00986

 Side 1  free  transition at x/c =  0.9817   65
 Side 2  free  transition at x/c =  0.0398   36

  44   rms: 0.4431E-01   max: -.5127E+00   D at   66  1   RLX: 0.975
       a =-10.500      CL = -1.0768
      Cm = -0.0141     CD =  0.01609   =>   CDf =  0.00657    CDp =  0.00952

 Side 1 forced transition at x/c =  1.0000   66
 Side 2  free  transition at x/c =  0.0405   36

  45   rms: 0.3370E-01   max: 0.3497E+00   C at   66  1
       a =-10.500      CL = -1.1027
      Cm = -0.0087     CD =  0.01642   =>   CDf =  0.00656    CDp =  0.00986

 Side 1  free  transition at x/c =  0.9817   65
 Side 2  free  transition at x/c =  0.0398   36

  46   rms: 0.4431E-01   max: -.5127E+00   D at   66  1   RLX: 0.975
       a =-10.500      CL = -1.0768
      Cm = -0.0141     CD =  0.01609   =>   CDf =  0.00657    CDp =  0.00952

 Side 1 forced transition at x/c =  1.0000   66
 Side 2  free  transition at x/c =  0.0405   36

  47   rms: 0.3370E-01   max: 0.3498E+00   C at   66  1
       a =-10.500      CL = -1.1027
      Cm = -0.0087     CD =  0.01642   =>   CDf =  0.00656    CDp =  0.00986

 Side 1  free  transition at x/c =  0.9817   65
 Side 2  free  transition at x/c =  0.0398   36

  48   rms: 0.4431E-01   max: -.5127E+00   D at   66  1   RLX: 0.975
       a =-10.500      CL = -1.0768
      Cm = -0.0141     CD =  0.01609   =>   CDf =  0.00657    CDp =  0.00952

 Side 1 forced transition at x/c =  1.0000   66
 Side 2  free  transition at x/c =  0.0405   36

  49   rms: 0.3370E-01   max: 0.3497E+00   C at   66  1
       a =-10.500      CL = -1.1027
      Cm = -0.0087     CD =  0.01642   =>   CDf =  0.00656    CDp =  0.00986

 Side 1  free  transition at x/c =  0.9817   65
 Side 2  free  transition at x/c =  0.0398   36

  50   rms: 0.4431E-01   max: -.5127E+00   D at   66  1   RLX: 0.975
       a =-10.500      CL = -1.0768
      Cm = -0.0141     CD =  0.01609   =>   CDf =  0.00657    CDp =  0.00952

 Side 1 forced transition at x/c =  1.0000   66
 Side 2  free  transition at x/c =  0.0405   36

  51   rms: 0.3370E-01   max: 0.3497E+00   C at   66  1
       a =-10.500      CL = -1.1027
      Cm = -0.0087     CD =  0.01642   =>   CDf =  0.00656    CDp =  0.00986

 Side 1  free  transition at x/c =  0.9817   65
 Side 2  free  transition at x/c =  0.0398   36

  52   rms: 0.4431E-01   max: -.5127E+00   D at   66  1   RLX: 0.975
       a =-10.500      CL = -1.0768
      Cm = -0.0141     CD =  0.01609   =>   CDf =  0.00657    CDp =  0.00952

 Side 1 forced transition at x/c =  1.0000   66
 Side 2  free  transition at x/c =  0.0405   36

  53   rms: 0.3370E-01   max: 0.3497E+00   C at   66  1
       a =-10.500      CL = -1.1027
      Cm = -0.0087     CD =  0.01642   =>   CDf =  0.00656    CDp =  0.00986

 Side 1  free  transition at x/c =  0.9817   65
 Side 2  free  transition at x/c =  0.0398   36

  54   rms: 0.4431E-01   max: -.5127E+00   D at   66  1   RLX: 0.975
       a =-10.500      CL = -1.0768
      Cm = -0.0141     CD =  0.01609   =>   CDf =  0.00657    CDp =  0.00952

 Side 1 forced transition at x/c =  1.0000   66
 Side 2  free  transition at x/c =  0.0405   36

  55   rms: 0.3370E-01   max: 0.3497E+00   C at   66  1
       a =-10.500      CL = -1.1027
      Cm = -0.0087     CD =  0.01642   =>   CDf =  0.00656    CDp =  0.00986

 Side 1  free  transition at x/c =  0.9817   65
 Side 2  free  transition at x/c =  0.0398   36

  56   rms: 0.4431E-01   max: -.5127E+00   D at   66  1   RLX: 0.975
       a =-10.500      CL = -1.0768
      Cm = -0.0141     CD =  0.01609   =>   CDf =  0.00657    CDp =  0.00952

 Side 1 forced transition at x/c =  1.0000   66
 Side 2  free  transition at x/c =  0.0405   36

  57   rms: 0.3370E-01   max: 0.3497E+00   C at   66  1
       a =-10.500      CL = -1.1027
      Cm = -0.0087     CD =  0.01642   =>   CDf =  0.00656    CDp =  0.00986

 Side 1  free  transition at x/c =  0.9817   65
 Side 2  free  transition at x/c =  0.0398   36

  58   rms: 0.4431E-01   max: -.5127E+00   D at   66  1   RLX: 0.975
       a =-10.500      CL = -1.0768
      Cm = -0.0141     CD =  0.01609   =>   CDf =  0.00657    CDp =  0.00952

 Side 1 forced transition at x/c =  1.0000   66
 Side 2  free  transition at x/c =  0.0405   36

  59   rms: 0.3370E-01   max: 0.3497E+00   C at   66  1
       a =-10.500      CL = -1.1027
      Cm = -0.0087     CD =  0.01642   =>   CDf =  0.00656    CDp =  0.00986

 Side 1  free  transition at x/c =  0.9817   65
 Side 2  free  transition at x/c =  0.0398   36

  60   rms: 0.4431E-01   max: -.5127E+00   D at   66  1   RLX: 0.975
       a =-10.500      CL = -1.0768
      Cm = -0.0141     CD =  0.01609   =>   CDf =  0.00657    CDp =  0.00952

 Side 1 forced transition at x/c =  1.0000   66
 Side 2  free  transition at x/c =  0.0405   36

  61   rms: 0.3370E-01   max: 0.3497E+00   C at   66  1
       a =-10.500      CL = -1.1027
      Cm = -0.0087     CD =  0.01642   =>   CDf =  0.00656    CDp =  0.00986

 Side 1  free  transition at x/c =  0.9817   65
 Side 2  free  transition at x/c =  0.0398   36

  62   rms: 0.4431E-01   max: -.5127E+00   D at   66  1   RLX: 0.975
       a =-10.500      CL = -1.0768
      Cm = -0.0141     CD =  0.01609   =>   CDf =  0.00657    CDp =  0.00952

 Side 1 forced transition at x/c =  1.0000   66
 Side 2  free  transition at x/c =  0.0405   36

  63   rms: 0.3370E-01   max: 0.3497E+00   C at   66  1
       a =-10.500      CL = -1.1027
      Cm = -0.0087     CD =  0.01642   =>   CDf =  0.00656    CDp =  0.00986

 Side 1  free  transition at x/c =  0.9817   65
 Side 2  free  transition at x/c =  0.0398   36

  64   rms: 0.4431E-01   max: -.5127E+00   D at   66  1   RLX: 0.975
       a =-10.500      CL = -1.0768
      Cm = -0.0141     CD =  0.01609   =>   CDf =  0.00657    CDp =  0.00952

 Side 1 forced transition at x/c =  1.0000   66
 Side 2  free  transition at x/c =  0.0405   36

  65   rms: 0.3370E-01   max: 0.3497E+00   C at   66  1
       a =-10.500      CL = -1.1027
      Cm = -0.0087     CD =  0.01642   =>   CDf =  0.00656    CDp =  0.00986

 Side 1  free  transition at x/c =  0.9817   65
 Side 2  free  transition at x/c =  0.0398   36

  66   rms: 0.4431E-01   max: -.5127E+00   D at   66  1   RLX: 0.975
       a =-10.500      CL = -1.0768
      Cm = -0.0141     CD =  0.01609   =>   CDf =  0.00657    CDp =  0.00952

 Side 1 forced transition at x/c =  1.0000   66
 Side 2  free  transition at x/c =  0.0405   36

  67   rms: 0.3370E-01   max: 0.3497E+00   C at   66  1
       a =-10.500      CL = -1.1027
      Cm = -0.0087     CD =  0.01642   =>   CDf =  0.00656    CDp =  0.00986

 Side 1  free  transition at x/c =  0.9817   65
 Side 2  free  transition at x/c =  0.0398   36

  68   rms: 0.4431E-01   max: -.5127E+00   D at   66  1   RLX: 0.975
       a =-10.500      CL = -1.0768
      Cm = -0.0141     CD =  0.01609   =>   CDf =  0.00657    CDp =  0.00952

 Side 1 forced transition at x/c =  1.0000   66
 Side 2  free  transition at x/c =  0.0405   36

  69   rms: 0.3370E-01   max: 0.3497E+00   C at   66  1
       a =-10.500      CL = -1.1027
      Cm = -0.0087     CD =  0.01642   =>   CDf =  0.00656    CDp =  0.00986

 Side 1  free  transition at x/c =  0.9817   65
 Side 2  free  transition at x/c =  0.0398   36

  70   rms: 0.4431E-01   max: -.5127E+00   D at   66  1   RLX: 0.975
       a =-10.500      CL = -1.0768
      Cm = -0.0141     CD =  0.01609   =>   CDf =  0.00657    CDp =  0.00952

 Side 1 forced transition at x/c =  1.0000   66
 Side 2  free  transition at x/c =  0.0405   36

  71   rms: 0.3370E-01   max: 0.3497E+00   C at   66  1
       a =-10.500      CL = -1.1027
      Cm = -0.0087     CD =  0.01642   =>   CDf =  0.00656    CDp =  0.00986

 Side 1  free  transition at x/c =  0.9817   65
 Side 2  free  transition at x/c =  0.0398   36

  72   rms: 0.4431E-01   max: -.5127E+00   D at   66  1   RLX: 0.975
       a =-10.500      CL = -1.0768
      Cm = -0.0141     CD =  0.01609   =>   CDf =  0.00657    CDp =  0.00952

 Side 1 forced transition at x/c =  1.0000   66
 Side 2  free  transition at x/c =  0.0405   36

  73   rms: 0.3370E-01   max: 0.3497E+00   C at   66  1
       a =-10.500      CL = -1.1027
      Cm = -0.0087     CD =  0.01642   =>   CDf =  0.00656    CDp =  0.00986

 Side 1  free  transition at x/c =  0.9817   65
 Side 2  free  transition at x/c =  0.0398   36

  74   rms: 0.4431E-01   max: -.5127E+00   D at   66  1   RLX: 0.975
       a =-10.500      CL = -1.0768
      Cm = -0.0141     CD =  0.01609   =>   CDf =  0.00657    CDp =  0.00952

 Side 1 forced transition at x/c =  1.0000   66
 Side 2  free  transition at x/c =  0.0405   36

  75   rms: 0.3370E-01   max: 0.3498E+00   C at   66  1
       a =-10.500      CL = -1.1027
      Cm = -0.0087     CD =  0.01642   =>   CDf =  0.00656    CDp =  0.00986

 Side 1  free  transition at x/c =  0.9817   65
 Side 2  free  transition at x/c =  0.0398   36

  76   rms: 0.4431E-01   max: -.5127E+00   D at   66  1   RLX: 0.975
       a =-10.500      CL = -1.0768
      Cm = -0.0141     CD =  0.01609   =>   CDf =  0.00657    CDp =  0.00952

 Side 1 forced transition at x/c =  1.0000   66
 Side 2  free  transition at x/c =  0.0405   36

  77   rms: 0.3370E-01   max: 0.3497E+00   C at   66  1
       a =-10.500      CL = -1.1027
      Cm = -0.0087     CD =  0.01642   =>   CDf =  0.00656    CDp =  0.00986

 Side 1  free  transition at x/c =  0.9817   65
 Side 2  free  transition at x/c =  0.0398   36

  78   rms: 0.4431E-01   max: -.5127E+00   D at   66  1   RLX: 0.975
       a =-10.500      CL = -1.0768
      Cm = -0.0141     CD =  0.01609   =>   CDf =  0.00657    CDp =  0.00952

 Side 1 forced transition at x/c =  1.0000   66
 Side 2  free  transition at x/c =  0.0405   36

  79   rms: 0.3370E-01   max: 0.3497E+00   C at   66  1
       a =-10.500      CL = -1.1027
      Cm = -0.0087     CD =  0.01642   =>   CDf =  0.00656    CDp =  0.00986

 Side 1  free  transition at x/c =  0.9817   65
 Side 2  free  transition at x/c =  0.0398   36

  80   rms: 0.4431E-01   max: -.5127E+00   D at   66  1   RLX: 0.975
       a =-10.500      CL = -1.0768
      Cm = -0.0141     CD =  0.01609   =>   CDf =  0.00657    CDp =  0.00952

 Side 1 forced transition at x/c =  1.0000   66
 Side 2  free  transition at x/c =  0.0405   36

  81   rms: 0.3370E-01   max: 0.3497E+00   C at   66  1
       a =-10.500      CL = -1.1027
      Cm = -0.0087     CD =  0.01642   =>   CDf =  0.00656    CDp =  0.00986

 Side 1  free  transition at x/c =  0.9817   65
 Side 2  free  transition at x/c =  0.0398   36

  82   rms: 0.4431E-01   max: -.5127E+00   D at   66  1   RLX: 0.975
       a =-10.500      CL = -1.0768
      Cm = -0.0141     CD =  0.01609   =>   CDf =  0.00657    CDp =  0.00952

 Side 1 forced transition at x/c =  1.0000   66
 Side 2  free  transition at x/c =  0.0405   36

  83   rms: 0.3370E-01   max: 0.3497E+00   C at   66  1
       a =-10.500      CL = -1.1027
      Cm = -0.0087     CD =  0.01642   =>   CDf =  0.00656    CDp =  0.00986

 Side 1  free  transition at x/c =  0.9817   65
 Side 2  free  transition at x/c =  0.0398   36

  84   rms: 0.4431E-01   max: -.5127E+00   D at   66  1   RLX: 0.975
       a =-10.500      CL = -1.0768
      Cm = -0.0141     CD =  0.01609   =>   CDf =  0.00657    CDp =  0.00952

 Side 1 forced transition at x/c =  1.0000   66
 Side 2  free  transition at x/c =  0.0405   36

  85   rms: 0.3370E-01   max: 0.3497E+00   C at   66  1
       a =-10.500      CL = -1.1027
      Cm = -0.0087     CD =  0.01642   =>   CDf =  0.00656    CDp =  0.00986

 Side 1  free  transition at x/c =  0.9817   65
 Side 2  free  transition at x/c =  0.0398   36

  86   rms: 0.4431E-01   max: -.5127E+00   D at   66  1   RLX: 0.975
       a =-10.500      CL = -1.0768
      Cm = -0.0141     CD =  0.01609   =>   CDf =  0.00657    CDp =  0.00952

 Side 1 forced transition at x/c =  1.0000   66
 Side 2  free  transition at x/c =  0.0405   36

  87   rms: 0.3370E-01   max: 0.3497E+00   C at   66  1
       a =-10.500      CL = -1.1027
      Cm = -0.0087     CD =  0.01642   =>   CDf =  0.00656    CDp =  0.00986

 Side 1  free  transition at x/c =  0.9817   65
 Side 2  free  transition at x/c =  0.0398   36

  88   rms: 0.4431E-01   max: -.5127E+00   D at   66  1   RLX: 0.975
       a =-10.500      CL = -1.0768
      Cm = -0.0141     CD =  0.01609   =>   CDf =  0.00657    CDp =  0.00952

 Side 1 forced transition at x/c =  1.0000   66
 Side 2  free  transition at x/c =  0.0405   36

  89   rms: 0.3370E-01   max: 0.3497E+00   C at   66  1
       a =-10.500      CL = -1.1027
      Cm = -0.0087     CD =  0.01642   =>   CDf =  0.00656    CDp =  0.00986

 Side 1  free  transition at x/c =  0.9817   65
 Side 2  free  transition at x/c =  0.0398   36

  90   rms: 0.4431E-01   max: -.5127E+00   D at   66  1   RLX: 0.975
       a =-10.500      CL = -1.0768
      Cm = -0.0141     CD =  0.01609   =>   CDf =  0.00657    CDp =  0.00952

 Side 1 forced transition at x/c =  1.0000   66
 Side 2  free  transition at x/c =  0.0405   36

  91   rms: 0.3370E-01   max: 0.3497E+00   C at   66  1
       a =-10.500      CL = -1.1027
      Cm = -0.0087     CD =  0.01642   =>   CDf =  0.00656    CDp =  0.00986

 Side 1  free  transition at x/c =  0.9817   65
 Side 2  free  transition at x/c =  0.0398   36

  92   rms: 0.4431E-01   max: -.5127E+00   D at   66  1   RLX: 0.975
       a =-10.500      CL = -1.0768
      Cm = -0.0141     CD =  0.01609   =>   CDf =  0.00657    CDp =  0.00952

 Side 1 forced transition at x/c =  1.0000   66
 Side 2  free  transition at x/c =  0.0405   36

  93   rms: 0.3370E-01   max: 0.3497E+00   C at   66  1
       a =-10.500      CL = -1.1027
      Cm = -0.0087     CD =  0.01642   =>   CDf =  0.00656    CDp =  0.00986

 Side 1  free  transition at x/c =  0.9817   65
 Side 2  free  transition at x/c =  0.0398   36

  94   rms: 0.4431E-01   max: -.5127E+00   D at   66  1   RLX: 0.975
       a =-10.500      CL = -1.0768
      Cm = -0.0141     CD =  0.01609   =>   CDf =  0.00657    CDp =  0.00952

 Side 1 forced transition at x/c =  1.0000   66
 Side 2  free  transition at x/c =  0.0405   36

  95   rms: 0.3370E-01   max: 0.3497E+00   C at   66  1
       a =-10.500      CL = -1.1027
      Cm = -0.0087     CD =  0.01642   =>   CDf =  0.00656    CDp =  0.00986

 Side 1  free  transition at x/c =  0.9817   65
 Side 2  free  transition at x/c =  0.0398   36

  96   rms: 0.4431E-01   max: -.5127E+00   D at   66  1   RLX: 0.975
       a =-10.500      CL = -1.0768
      Cm = -0.0141     CD =  0.01609   =>   CDf =  0.00657    CDp =  0.00952

 Side 1 forced transition at x/c =  1.0000   66
 Side 2  free  transition at x/c =  0.0405   36

  97   rms: 0.3370E-01   max: 0.3497E+00   C at   66  1
       a =-10.500      CL = -1.1027
      Cm = -0.0087     CD =  0.01642   =>   CDf =  0.00656    CDp =  0.00986

 Side 1  free  transition at x/c =  0.9817   65
 Side 2  free  transition at x/c =  0.0398   36

  98   rms: 0.4431E-01   max: -.5127E+00   D at   66  1   RLX: 0.975
       a =-10.500      CL = -1.0768
      Cm = -0.0141     CD =  0.01609   =>   CDf =  0.00657    CDp =  0.00952

 Side 1 forced transition at x/c =  1.0000   66
 Side 2  free  transition at x/c =  0.0405   36

  99   rms: 0.3370E-01   max: 0.3497E+00   C at   66  1
       a =-10.500      CL = -1.1027
      Cm = -0.0087     CD =  0.01642   =>   CDf =  0.00656    CDp =  0.00986

 Side 1  free  transition at x/c =  0.9817   65
 Side 2  free  transition at x/c =  0.0398   36

 100   rms: 0.4431E-01   max: -.5127E+00   D at   66  1   RLX: 0.975
       a =-10.500      CL = -1.0768
      Cm = -0.0141     CD =  0.01609   =>   CDf =  0.00657    CDp =  0.00952

 Side 1 forced transition at x/c =  1.0000   66
 Side 2  free  transition at x/c =  0.0405   36

 101   rms: 0.3370E-01   max: 0.3497E+00   C at   66  1
       a =-10.500      CL = -1.1027
      Cm = -0.0087     CD =  0.01642   =>   CDf =  0.00656    CDp =  0.00986

 Side 1  free  transition at x/c =  0.9817   65
 Side 2  free  transition at x/c =  0.0398   36

 102   rms: 0.4431E-01   max: -.5127E+00   D at   66  1   RLX: 0.975
       a =-10.500      CL = -1.0768
      Cm = -0.0141     CD =  0.01609   =>   CDf =  0.00657    CDp =  0.00952

 Side 1 forced transition at x/c =  1.0000   66
 Side 2  free  transition at x/c =  0.0405   36

 103   rms: 0.3370E-01   max: 0.3497E+00   C at   66  1
       a =-10.500      CL = -1.1027
      Cm = -0.0087     CD =  0.01642   =>   CDf =  0.00656    CDp =  0.00986

 Side 1  free  transition at x/c =  0.9817   65
 Side 2  free  transition at x/c =  0.0398   36

 104   rms: 0.4431E-01   max: -.5127E+00   D at   66  1   RLX: 0.975
       a =-10.500      CL = -1.0768
      Cm = -0.0141     CD =  0.01609   =>   CDf =  0.00657    CDp =  0.00952

 Side 1 forced transition at x/c =  1.0000   66
 Side 2  free  transition at x/c =  0.0405   36

 105   rms: 0.3370E-01   max: 0.3497E+00   C at   66  1
       a =-10.500      CL = -1.1027
      Cm = -0.0087     CD =  0.01642   =>   CDf =  0.00656    CDp =  0.00986

 Side 1  free  transition at x/c =  0.9817   65
 Side 2  free  transition at x/c =  0.0398   36

 106   rms: 0.4431E-01   max: -.5127E+00   D at   66  1   RLX: 0.975
       a =-10.500      CL = -1.0768
      Cm = -0.0141     CD =  0.01609   =>   CDf =  0.00657    CDp =  0.00952

 Side 1 forced transition at x/c =  1.0000   66
 Side 2  free  transition at x/c =  0.0405   36

 107   rms: 0.3370E-01   max: 0.3497E+00   C at   66  1
       a =-10.500      CL = -1.1027
      Cm = -0.0087     CD =  0.01642   =>   CDf =  0.00656    CDp =  0.00986

 Side 1  free  transition at x/c =  0.9817   65
 Side 2  free  transition at x/c =  0.0398   36

 108   rms: 0.4431E-01   max: -.5127E+00   D at   66  1   RLX: 0.975
       a =-10.500      CL = -1.0768
      Cm = -0.0141     CD =  0.01609   =>   CDf =  0.00657    CDp =  0.00952

 Side 1 forced transition at x/c =  1.0000   66
 Side 2  free  transition at x/c =  0.0405   36

 109   rms: 0.3370E-01   max: 0.3497E+00   C at   66  1
       a =-10.500      CL = -1.1027
      Cm = -0.0087     CD =  0.01642   =>   CDf =  0.00656    CDp =  0.00986

 Side 1  free  transition at x/c =  0.9817   65
 Side 2  free  transition at x/c =  0.0398   36

 110   rms: 0.4431E-01   max: -.5127E+00   D at   66  1   RLX: 0.975
       a =-10.500      CL = -1.0768
      Cm = -0.0141     CD =  0.01609   =>   CDf =  0.00657    CDp =  0.00952

 Side 1 forced transition at x/c =  1.0000   66
 Side 2  free  transition at x/c =  0.0405   36

 111   rms: 0.3370E-01   max: 0.3497E+00   C at   66  1
       a =-10.500      CL = -1.1027
      Cm = -0.0087     CD =  0.01642   =>   CDf =  0.00656    CDp =  0.00986

 Side 1  free  transition at x/c =  0.9817   65
 Side 2  free  transition at x/c =  0.0398   36

 112   rms: 0.4431E-01   max: -.5127E+00   D at   66  1   RLX: 0.975
       a =-10.500      CL = -1.0768
      Cm = -0.0141     CD =  0.01609   =>   CDf =  0.00657    CDp =  0.00952

 Side 1 forced transition at x/c =  1.0000   66
 Side 2  free  transition at x/c =  0.0405   36

 113   rms: 0.3370E-01   max: 0.3497E+00   C at   66  1
       a =-10.500      CL = -1.1027
      Cm = -0.0087     CD =  0.01642   =>   CDf =  0.00656    CDp =  0.00986

 Side 1  free  transition at x/c =  0.9817   65
 Side 2  free  transition at x/c =  0.0398   36

 114   rms: 0.4431E-01   max: -.5127E+00   D at   66  1   RLX: 0.975
       a =-10.500      CL = -1.0768
      Cm = -0.0141     CD =  0.01609   =>   CDf =  0.00657    CDp =  0.00952

 Side 1 forced transition at x/c =  1.0000   66
 Side 2  free  transition at x/c =  0.0405   36

 115   rms: 0.3370E-01   max: 0.3497E+00   C at   66  1
       a =-10.500      CL = -1.1027
      Cm = -0.0087     CD =  0.01642   =>   CDf =  0.00656    CDp =  0.00986

 Side 1  free  transition at x/c =  0.9817   65
 Side 2  free  transition at x/c =  0.0398   36

 116   rms: 0.4431E-01   max: -.5127E+00   D at   66  1   RLX: 0.975
       a =-10.500      CL = -1.0768
      Cm = -0.0141     CD =  0.01609   =>   CDf =  0.00657    CDp =  0.00952

 Side 1 forced transition at x/c =  1.0000   66
 Side 2  free  transition at x/c =  0.0405   36

 117   rms: 0.3370E-01   max: 0.3497E+00   C at   66  1
       a =-10.500      CL = -1.1027
      Cm = -0.0087     CD =  0.01642   =>   CDf =  0.00656    CDp =  0.00986

 Side 1  free  transition at x/c =  0.9817   65
 Side 2  free  transition at x/c =  0.0398   36

 118   rms: 0.4431E-01   max: -.5127E+00   D at   66  1   RLX: 0.975
       a =-10.500      CL = -1.0768
      Cm = -0.0141     CD =  0.01609   =>   CDf =  0.00657    CDp =  0.00952

 Side 1 forced transition at x/c =  1.0000   66
 Side 2  free  transition at x/c =  0.0405   36

 119   rms: 0.3370E-01   max: 0.3497E+00   C at   66  1
       a =-10.500      CL = -1.1027
      Cm = -0.0087     CD =  0.01642   =>   CDf =  0.00656    CDp =  0.00986

 Side 1  free  transition at x/c =  0.9817   65
 Side 2  free  transition at x/c =  0.0398   36

 120   rms: 0.4431E-01   max: -.5127E+00   D at   66  1   RLX: 0.975
       a =-10.500      CL = -1.0768
      Cm = -0.0141     CD =  0.01609   =>   CDf =  0.00657    CDp =  0.00952

 Side 1 forced transition at x/c =  1.0000   66
 Side 2  free  transition at x/c =  0.0405   36

 121   rms: 0.3370E-01   max: 0.3497E+00   C at   66  1
       a =-10.500      CL = -1.1027
      Cm = -0.0087     CD =  0.01642   =>   CDf =  0.00656    CDp =  0.00986

 Side 1  free  transition at x/c =  0.9817   65
 Side 2  free  transition at x/c =  0.0398   36

 122   rms: 0.4431E-01   max: -.5127E+00   D at   66  1   RLX: 0.975
       a =-10.500      CL = -1.0768
      Cm = -0.0141     CD =  0.01609   =>   CDf =  0.00657    CDp =  0.00952

 Side 1 forced transition at x/c =  1.0000   66
 Side 2  free  transition at x/c =  0.0405   36

 123   rms: 0.3370E-01   max: 0.3498E+00   C at   66  1
       a =-10.500      CL = -1.1027
      Cm = -0.0087     CD =  0.01642   =>   CDf =  0.00656    CDp =  0.00986

 Side 1  free  transition at x/c =  0.9817   65
 Side 2  free  transition at x/c =  0.0398   36

 124   rms: 0.4431E-01   max: -.5127E+00   D at   66  1   RLX: 0.975
       a =-10.500      CL = -1.0768
      Cm = -0.0141     CD =  0.01609   =>   CDf =  0.00657    CDp =  0.00952

 Side 1 forced transition at x/c =  1.0000   66
 Side 2  free  transition at x/c =  0.0405   36

 125   rms: 0.3370E-01   max: 0.3497E+00   C at   66  1
       a =-10.500      CL = -1.1027
      Cm = -0.0087     CD =  0.01642   =>   CDf =  0.00656    CDp =  0.00986

 Side 1  free  transition at x/c =  0.9817   65
 Side 2  free  transition at x/c =  0.0398   36

 126   rms: 0.4431E-01   max: -.5127E+00   D at   66  1   RLX: 0.975
       a =-10.500      CL = -1.0768
      Cm = -0.0141     CD =  0.01609   =>   CDf =  0.00657    CDp =  0.00952

 Side 1 forced transition at x/c =  1.0000   66
 Side 2  free  transition at x/c =  0.0405   36

 127   rms: 0.3370E-01   max: 0.3497E+00   C at   66  1
       a =-10.500      CL = -1.1027
      Cm = -0.0087     CD =  0.01642   =>   CDf =  0.00656    CDp =  0.00986

 Side 1  free  transition at x/c =  0.9817   65
 Side 2  free  transition at x/c =  0.0398   36

 128   rms: 0.4431E-01   max: -.5127E+00   D at   66  1   RLX: 0.975
       a =-10.500      CL = -1.0768
      Cm = -0.0141     CD =  0.01609   =>   CDf =  0.00657    CDp =  0.00952

 Side 1 forced transition at x/c =  1.0000   66
 Side 2  free  transition at x/c =  0.0405   36

 129   rms: 0.3370E-01   max: 0.3497E+00   C at   66  1
       a =-10.500      CL = -1.1027
      Cm = -0.0087     CD =  0.01642   =>   CDf =  0.00656    CDp =  0.00986

 Side 1  free  transition at x/c =  0.9817   65
 Side 2  free  transition at x/c =  0.0398   36

 130   rms: 0.4431E-01   max: -.5127E+00   D at   66  1   RLX: 0.975
       a =-10.500      CL = -1.0768
      Cm = -0.0141     CD =  0.01609   =>   CDf =  0.00657    CDp =  0.00952

 Side 1 forced transition at x/c =  1.0000   66
 Side 2  free  transition at x/c =  0.0405   36

 131   rms: 0.3370E-01   max: 0.3497E+00   C at   66  1
       a =-10.500      CL = -1.1027
      Cm = -0.0087     CD =  0.01642   =>   CDf =  0.00656    CDp =  0.00986

 Side 1  free  transition at x/c =  0.9817   65
 Side 2  free  transition at x/c =  0.0398   36

 132   rms: 0.4431E-01   max: -.5127E+00   D at   66  1   RLX: 0.975
       a =-10.500      CL = -1.0768
      Cm = -0.0141     CD =  0.01609   =>   CDf =  0.00657    CDp =  0.00952

 Side 1 forced transition at x/c =  1.0000   66
 Side 2  free  transition at x/c =  0.0405   36

 133   rms: 0.3370E-01   max: 0.3497E+00   C at   66  1
       a =-10.500      CL = -1.1027
      Cm = -0.0087     CD =  0.01642   =>   CDf =  0.00656    CDp =  0.00986

 Side 1  free  transition at x/c =  0.9817   65
 Side 2  free  transition at x/c =  0.0398   36

 134   rms: 0.4431E-01   max: -.5127E+00   D at   66  1   RLX: 0.975
       a =-10.500      CL = -1.0768
      Cm = -0.0141     CD =  0.01609   =>   CDf =  0.00657    CDp =  0.00952

 Side 1 forced transition at x/c =  1.0000   66
 Side 2  free  transition at x/c =  0.0405   36

 135   rms: 0.3370E-01   max: 0.3497E+00   C at   66  1
       a =-10.500      CL = -1.1027
      Cm = -0.0087     CD =  0.01642   =>   CDf =  0.00656    CDp =  0.00986

 Side 1  free  transition at x/c =  0.9817   65
 Side 2  free  transition at x/c =  0.0398   36

 136   rms: 0.4431E-01   max: -.5127E+00   D at   66  1   RLX: 0.975
       a =-10.500      CL = -1.0768
      Cm = -0.0141     CD =  0.01609   =>   CDf =  0.00657    CDp =  0.00952

 Side 1 forced transition at x/c =  1.0000   66
 Side 2  free  transition at x/c =  0.0405   36

 137   rms: 0.3370E-01   max: 0.3497E+00   C at   66  1
       a =-10.500      CL = -1.1027
      Cm = -0.0087     CD =  0.01642   =>   CDf =  0.00656    CDp =  0.00986

 Side 1  free  transition at x/c =  0.9817   65
 Side 2  free  transition at x/c =  0.0398   36

 138   rms: 0.4431E-01   max: -.5127E+00   D at   66  1   RLX: 0.975
       a =-10.500      CL = -1.0768
      Cm = -0.0141     CD =  0.01609   =>   CDf =  0.00657    CDp =  0.00952

 Side 1 forced transition at x/c =  1.0000   66
 Side 2  free  transition at x/c =  0.0405   36

 139   rms: 0.3370E-01   max: 0.3498E+00   C at   66  1
       a =-10.500      CL = -1.1027
      Cm = -0.0087     CD =  0.01642   =>   CDf =  0.00656    CDp =  0.00986

 Side 1  free  transition at x/c =  0.9817   65
 Side 2  free  transition at x/c =  0.0398   36

 140   rms: 0.4431E-01   max: -.5127E+00   D at   66  1   RLX: 0.975
       a =-10.500      CL = -1.0768
      Cm = -0.0141     CD =  0.01609   =>   CDf =  0.00657    CDp =  0.00952

 Side 1 forced transition at x/c =  1.0000   66
 Side 2  free  transition at x/c =  0.0405   36

 141   rms: 0.3370E-01   max: 0.3497E+00   C at   66  1
       a =-10.500      CL = -1.1027
      Cm = -0.0087     CD =  0.01642   =>   CDf =  0.00656    CDp =  0.00986

 Side 1  free  transition at x/c =  0.9817   65
 Side 2  free  transition at x/c =  0.0398   36

 142   rms: 0.4431E-01   max: -.5127E+00   D at   66  1   RLX: 0.975
       a =-10.500      CL = -1.0768
      Cm = -0.0141     CD =  0.01609   =>   CDf =  0.00657    CDp =  0.00952

 Side 1 forced transition at x/c =  1.0000   66
 Side 2  free  transition at x/c =  0.0405   36

 143   rms: 0.3370E-01   max: 0.3497E+00   C at   66  1
       a =-10.500      CL = -1.1027
      Cm = -0.0087     CD =  0.01642   =>   CDf =  0.00656    CDp =  0.00986

 Side 1  free  transition at x/c =  0.9817   65
 Side 2  free  transition at x/c =  0.0398   36

 144   rms: 0.4431E-01   max: -.5127E+00   D at   66  1   RLX: 0.975
       a =-10.500      CL = -1.0768
      Cm = -0.0141     CD =  0.01609   =>   CDf =  0.00657    CDp =  0.00952

 Side 1 forced transition at x/c =  1.0000   66
 Side 2  free  transition at x/c =  0.0405   36

 145   rms: 0.3370E-01   max: 0.3497E+00   C at   66  1
       a =-10.500      CL = -1.1027
      Cm = -0.0087     CD =  0.01642   =>   CDf =  0.00656    CDp =  0.00986

 Side 1  free  transition at x/c =  0.9817   65
 Side 2  free  transition at x/c =  0.0398   36

 146   rms: 0.4431E-01   max: -.5127E+00   D at   66  1   RLX: 0.975
       a =-10.500      CL = -1.0768
      Cm = -0.0141     CD =  0.01609   =>   CDf =  0.00657    CDp =  0.00952

 Side 1 forced transition at x/c =  1.0000   66
 Side 2  free  transition at x/c =  0.0405   36

 147   rms: 0.3370E-01   max: 0.3497E+00   C at   66  1
       a =-10.500      CL = -1.1027
      Cm = -0.0087     CD =  0.01642   =>   CDf =  0.00656    CDp =  0.00986

 Side 1  free  transition at x/c =  0.9817   65
 Side 2  free  transition at x/c =  0.0398   36

 148   rms: 0.4431E-01   max: -.5127E+00   D at   66  1   RLX: 0.975
       a =-10.500      CL = -1.0768
      Cm = -0.0141     CD =  0.01609   =>   CDf =  0.00657    CDp =  0.00952

 Side 1 forced transition at x/c =  1.0000   66
 Side 2  free  transition at x/c =  0.0405   36

 149   rms: 0.3370E-01   max: 0.3497E+00   C at   66  1
       a =-10.500      CL = -1.1027
      Cm = -0.0087     CD =  0.01642   =>   CDf =  0.00656    CDp =  0.00986

 Side 1  free  transition at x/c =  0.9817   65
 Side 2  free  transition at x/c =  0.0398   36

 150   rms: 0.4431E-01   max: -.5127E+00   D at   66  1   RLX: 0.975
       a =-10.500      CL = -1.0768
      Cm = -0.0141     CD =  0.01609   =>   CDf =  0.00657    CDp =  0.00952

 Side 1 forced transition at x/c =  1.0000   66
 Side 2  free  transition at x/c =  0.0405   36

 151   rms: 0.3370E-01   max: 0.3497E+00   C at   66  1
       a =-10.500      CL = -1.1027
      Cm = -0.0087     CD =  0.01642   =>   CDf =  0.00656    CDp =  0.00986

 Side 1  free  transition at x/c =  0.9817   65
 Side 2  free  transition at x/c =  0.0398   36

 152   rms: 0.4431E-01   max: -.5127E+00   D at   66  1   RLX: 0.975
       a =-10.500      CL = -1.0768
      Cm = -0.0141     CD =  0.01609   =>   CDf =  0.00657    CDp =  0.00952

 Side 1 forced transition at x/c =  1.0000   66
 Side 2  free  transition at x/c =  0.0405   36

 153   rms: 0.3370E-01   max: 0.3497E+00   C at   66  1
       a =-10.500      CL = -1.1027
      Cm = -0.0087     CD =  0.01642   =>   CDf =  0.00656    CDp =  0.00986

 Side 1  free  transition at x/c =  0.9817   65
 Side 2  free  transition at x/c =  0.0398   36

 154   rms: 0.4431E-01   max: -.5127E+00   D at   66  1   RLX: 0.975
       a =-10.500      CL = -1.0768
      Cm = -0.0141     CD =  0.01609   =>   CDf =  0.00657    CDp =  0.00952

 Side 1 forced transition at x/c =  1.0000   66
 Side 2  free  transition at x/c =  0.0405   36

 155   rms: 0.3370E-01   max: 0.3497E+00   C at   66  1
       a =-10.500      CL = -1.1027
      Cm = -0.0087     CD =  0.01642   =>   CDf =  0.00656    CDp =  0.00986

 Side 1  free  transition at x/c =  0.9817   65
 Side 2  free  transition at x/c =  0.0398   36

[...]
       a = 16.000      CL =  1.4028
      Cm =  0.0298     CD =  0.04126   =>   CDf =  0.00546    CDp =  0.03580
 plradd ia,ip,cpol           72         100  2.74998997E-03

 Point added to stored polar  1
 Save file unspecified or not available
 Dump file unspecified or not available

.OPERva   c>  
.OPERva   c>  
.OPERva   c>   Calculating wake trajectory ...
 Calculating source influence matrix ...

 Solving BL system ...

 Side 1  free  transition at x/c =  0.0272   38
 Side 2 forced transition at x/c =  1.0000   61

   1   rms: 0.6678E-01   max: 0.2391E+00   D at   78  1   RLX: 0.744
       a = 16.500      CL =  1.4106
      Cm =  0.0291     CD =  0.04519   =>   CDf =  0.00547    CDp =  0.03972

 Side 1  free  transition at x/c =  0.0267   38
 Side 2 forced transition at x/c =  1.0000   61

   2   rms: 0.2301E-01   max: 0.1360E+00   D at   79  1
       a = 16.500      CL =  1.4067
      Cm =  0.0287     CD =  0.04699   =>   CDf =  0.00536    CDp =  0.04164

 Side 1  free  transition at x/c =  0.0266   38
 Side 2 forced transition at x/c =  1.0000   61

   3   rms: 0.3384E-02   max: 0.3184E-01   D at   77  1
       a = 16.500      CL =  1.4045
      Cm =  0.0288     CD =  0.04691   =>   CDf =  0.00530    CDp =  0.04161

 Side 1  free  transition at x/c =  0.0266   38
 Side 2 forced transition at x/c =  1.0000   61

   4   rms: 0.2218E-03   max: 0.9766E-03   D at   74  2
       a = 16.500      CL =  1.4043
      Cm =  0.0288     CD =  0.04689   =>   CDf =  0.00529    CDp =  0.04160

 Side 1  free  transition at x/c =  0.0266   38
 Side 2 forced transition at x/c =  1.0000   61

   5   rms: 0.1137E-04   max: 0.6312E-04   D at   73  2
       a = 16.500      CL =  1.4043
      Cm =  0.0288     CD =  0.04689   =>   CDf =  0.00529    CDp =  0.04160
 plradd ia,ip,cpol           73         100  2.74998997E-03

 Point added to stored polar  1
 Save file unspecified or not available
 Dump file unspecified or not available

.OPERva   c>  
.OPERva   c>  
.OPERva   c>   Calculating wake trajectory ...
 Calculating source influence matrix ...

 Solving BL system ...

 Side 1  free  transition at x/c =  0.0266   38
 Side 2 forced transition at x/c =  1.0000   61

   1   rms: 0.6830E-01   max: 0.2647E+00   D at   75  1   RLX: 0.681
       a = 17.000      CL =  1.4079
      Cm =  0.0276     CD =  0.05133   =>   CDf =  0.00530    CDp =  0.04603

 Side 1  free  transition at x/c =  0.0262   38
 Side 2 forced transition at x/c =  1.0000   61

   2   rms: 0.2979E-01   max: 0.1691E+00   D at   75  1
       a = 17.000      CL =  1.4015
      Cm =  0.0267     CD =  0.05404   =>   CDf =  0.00482    CDp =  0.04922

 Side 1  free  transition at x/c =  0.0261   39
 Side 2 forced transition at x/c =  1.0000   60

   3   rms: 0.5607E-02   max: -.4840E-01   D at    2  1
       a = 17.000      CL =  1.3983
      Cm =  0.0269     CD =  0.05389   =>   CDf =  0.00512    CDp =  0.04878

 Side 1  free  transition at x/c =  0.0261   39
 Side 2 forced transition at x/c =  1.0000   60

   4   rms: 0.5218E-03   max: -.4973E-02   D at    4  1
       a = 17.000      CL =  1.3981
      Cm =  0.0269     CD =  0.05385   =>   CDf =  0.00511    CDp =  0.04874

 Side 1  free  transition at x/c =  0.0261   39
 Side 2 forced transition at x/c =  1.0000   60

   5   rms: 0.2427E-04   max: 0.1268E-03   D at   73  2
       a = 17.000      CL =  1.3980
      Cm =  0.0269     CD =  0.05385   =>   CDf =  0.00511    CDp =  0.04874
 plradd ia,ip,cpol           74         101  1.83810201E-03

 Point added to stored polar  1
 Save file unspecified or not available
 Dump file unspecified or not available

.OPERva   c>  
.OPERva   c>  
.OPERva   c>   Calculating wake trajectory ...
 Calculating source influence matrix ...

 Solving BL system ...

 Side 1  free  transition at x/c =  0.0261   39
 Side 2 forced transition at x/c =  1.0000   60

   1   rms: 0.7303E-01   max: 0.3128E+00   D at   73  1   RLX: 0.620
       a = 17.500      CL =  1.3967
      Cm =  0.0250     CD =  0.05905   =>   CDf =  0.00512    CDp =  0.05393

 Side 1  free  transition at x/c =  0.0258   39
 Side 2 forced transition at x/c =  1.0000   60

   2   rms: 0.3587E-01   max: 0.2053E+00   D at   73  1
       a = 17.500      CL =  1.3869
      Cm =  0.0237     CD =  0.06274   =>   CDf =  0.00501    CDp =  0.05773

 Side 1  free  transition at x/c =  0.0256   39
 Side 2 forced transition at x/c =  1.0000   60

   3   rms: 0.7031E-02   max: 0.6113E-01   D at   72  1
       a = 17.500      CL =  1.3823
      Cm =  0.0238     CD =  0.06257   =>   CDf =  0.00492    CDp =  0.05765

 Side 1  free  transition at x/c =  0.0257   39
 Side 2 forced transition at x/c =  1.0000   60

   4   rms: 0.6717E-03   max: 0.5982E-02   D at   71  1
       a = 17.500      CL =  1.3818
      Cm =  0.0239     CD =  0.06251   =>   CDf =  0.00491    CDp =  0.05759

 Side 1  free  transition at x/c =  0.0257   39
 Side 2 forced transition at x/c =  1.0000   60

   5   rms: 0.4378E-04   max: 0.2336E-03   D at   74  2
       a = 17.500      CL =  1.3818
      Cm =  0.0239     CD =  0.06250   =>   CDf =  0.00491    CDp =  0.05759
 plradd ia,ip,cpol           75         101  1.83810201E-03

 Point added to stored polar  1
 Save file unspecified or not available
 Dump file unspecified or not available

.OPERva   c>  
.OPERva   c>  
.OPERva   c>   Calculating wake trajectory ...
 Calculating source influence matrix ...

 Solving BL system ...

 Side 1  free  transition at x/c =  0.0257   39
 Side 2 forced transition at x/c =  1.0000   60

   1   rms: 0.7688E-01   max: 0.3531E+00   D at   70  1   RLX: 0.562
       a = 18.000      CL =  1.3760
      Cm =  0.0215     CD =  0.06836   =>   CDf =  0.00492    CDp =  0.06344

 Side 1  free  transition at x/c =  0.0254   39
 Side 2 forced transition at x/c =  1.0000   60

   2   rms: 0.4113E-01   max: 0.2320E+00   D at   70  1
       a = 18.000      CL =  1.3628
      Cm =  0.0196     CD =  0.07324   =>   CDf =  0.00482    CDp =  0.06842

 Side 1  free  transition at x/c =  0.0252   38
 Side 2 forced transition at x/c =  1.0000   60

   3   rms: 0.7569E-02   max: 0.6251E-01   D at   68  1
       a = 18.000      CL =  1.3585
      Cm =  0.0199     CD =  0.07266   =>   CDf =  0.00471    CDp =  0.06795

 Side 1  free  transition at x/c =  0.0253   38
 Side 2 forced transition at x/c =  1.0000   60

   4   rms: 0.5029E-03   max: 0.3348E-02   D at   74  2
       a = 18.000      CL =  1.3581
      Cm =  0.0199     CD =  0.07254   =>   CDf =  0.00470    CDp =  0.06784

 Side 1  free  transition at x/c =  0.0253   38
 Side 2 forced transition at x/c =  1.0000   60

   5   rms: 0.1068E-04   max: 0.9635E-04   D at   74  2
       a = 18.000      CL =  1.3581
      Cm =  0.0199     CD =  0.07253   =>   CDf =  0.00470    CDp =  0.06784
 plradd ia,ip,cpol           76         101  1.83810201E-03

 Point added to stored polar  1
 Save file unspecified or not available
 Dump file unspecified or not available

.OPERva   c>  
.OPERva   c>  
.OPERva   c>   Calculating wake trajectory ...
 Calculating source influence matrix ...

 Solving BL system ...

 Side 1  free  transition at x/c =  0.0253   38
 Side 2 forced transition at x/c =  1.0000   60

   1   rms: 0.6402E-01   max: 0.2907E+00   D at   67  1   RLX: 0.518
       a = 18.500      CL =  1.3562
      Cm =  0.0179     CD =  0.07760   =>   CDf =  0.00471    CDp =  0.07289

 Side 1  free  transition at x/c =  0.0251   38
 Side 2 forced transition at x/c =  1.0000   60

   2   rms: 0.3820E-01   max: 0.2118E+00   D at   67  1
       a = 18.500      CL =  1.3460
      Cm =  0.0157     CD =  0.08282   =>   CDf =  0.00460    CDp =  0.07822

 Side 1  free  transition at x/c =  0.0250   38
 Side 2 forced transition at x/c =  1.0000   60

   3   rms: 0.9930E-02   max: 0.7160E-01   D at   66  1
       a = 18.500      CL =  1.3392
      Cm =  0.0158     CD =  0.08257   =>   CDf =  0.00448    CDp =  0.07809

 Side 1  free  transition at x/c =  0.0250   38
 Side 2 forced transition at x/c =  1.0000   60

   4   rms: 0.1836E-02   max: 0.1506E-01   D at   65  1
       a = 18.500      CL =  1.3379
      Cm =  0.0158     CD =  0.08251   =>   CDf =  0.00447    CDp =  0.07804

 Side 1  free  transition at x/c =  0.0250   38
 Side 2 forced transition at x/c =  1.0000   60

   5   rms: 0.2486E-03   max: 0.1088E-02   D at   75  2
       a = 18.500      CL =  1.3377
      Cm =  0.0158     CD =  0.08248   =>   CDf =  0.00447    CDp =  0.07802

 Side 1  free  transition at x/c =  0.0250   38
 Side 2 forced transition at x/c =  1.0000   60

   6   rms: 0.2449E-04   max: 0.1311E-03   D at   75  2
       a = 18.500      CL =  1.3377
      Cm =  0.0158     CD =  0.08248   =>   CDf =  0.00447    CDp =  0.07801
 plradd ia,ip,cpol           77         101  1.83810201E-03

 Point added to stored polar  1
 Save file unspecified or not available
 Dump file unspecified or not available

.OPERva   c>  
.OPERva   c>  
.OPERva   c>   Calculating wake trajectory ...
 Calculating source influence matrix ...

 Solving BL system ...

 Side 1  free  transition at x/c =  0.0250   38
 Side 2 forced transition at x/c =  1.0000   60

   1   rms: 0.6674E-01   max: 0.3298E+00   D at   64  1   RLX: 0.476
       a = 19.000      CL =  1.3331
      Cm =  0.0134     CD =  0.08800   =>   CDf =  0.00448    CDp =  0.08353

 Side 1  free  transition at x/c =  0.0248   38
 Side 2 forced transition at x/c =  1.0000   60

   2   rms: 0.4067E-01   max: 0.2322E+00   D at   64  1
       a = 19.000      CL =  1.3207
      Cm =  0.0108     CD =  0.09411   =>   CDf =  0.00437    CDp =  0.08974

 Side 1  free  transition at x/c =  0.0246   38
 Side 2 forced transition at x/c =  1.0000   60

   3   rms: 0.1033E-01   max: 0.8058E-01   D at   63  1
       a = 19.000      CL =  1.3135
      Cm =  0.0110     CD =  0.09363   =>   CDf =  0.00425    CDp =  0.08937

 Side 1  free  transition at x/c =  0.0247   38
 Side 2 forced transition at x/c =  1.0000   60

   4   rms: 0.6672E-03   max: -.5298E-02   D at   63  1
       a = 19.000      CL =  1.3131
      Cm =  0.0111     CD =  0.09328   =>   CDf =  0.00424    CDp =  0.08904

 Side 1  free  transition at x/c =  0.0247   38
 Side 2 forced transition at x/c =  1.0000   60

   5   rms: 0.7475E-04   max: -.2710E-03   D at   77  2
       a = 19.000      CL =  1.3131
      Cm =  0.0111     CD =  0.09327   =>   CDf =  0.00424    CDp =  0.08903
 plradd ia,ip,cpol           78         101  1.83810201E-03

 Point added to stored polar  1
 Save file unspecified or not available
 Dump file unspecified or not available

.OPERva   c>  
.OPERva   c>  
.OPERva   c>   Calculating wake trajectory ...
 Calculating source influence matrix ...

 Solving BL system ...

 Side 1  free  transition at x/c =  0.0247   38
 Side 2 forced transition at x/c =  1.0000   60

   1   rms: 0.6151E-01   max: 0.3102E+00   D at   62  1   RLX: 0.441
       a = 19.500      CL =  1.3087
      Cm =  0.0089     CD =  0.09856   =>   CDf =  0.00425    CDp =  0.09430

 Side 1  free  transition at x/c =  0.0244   38
 Side 2 forced transition at x/c =  1.0000   60

   2   rms: 0.4362E-01   max: 0.2514E+00   D at   62  1
       a = 19.500      CL =  1.2948
      Cm =  0.0056     CD =  0.10599   =>   CDf =  0.00417    CDp =  0.10183

 Side 1  free  transition at x/c =  0.0242   38
 Side 2 forced transition at x/c =  1.0000   60

   3   rms: 0.1098E-01   max: 0.8674E-01   D at   61  1
       a = 19.500      CL =  1.2875
      Cm =  0.0058     CD =  0.10509   =>   CDf =  0.00404    CDp =  0.10105

 Side 1  free  transition at x/c =  0.0243   38
 Side 2 forced transition at x/c =  1.0000   60

   4   rms: 0.9725E-03   max: 0.1101E-01   D at   76  2
       a = 19.500      CL =  1.2870
      Cm =  0.0059     CD =  0.10462   =>   CDf =  0.00403    CDp =  0.10060

 Side 1  free  transition at x/c =  0.0243   38
 Side 2 forced transition at x/c =  1.0000   60

   5   rms: 0.7126E-04   max: -.2261E-03   D at   78  2
       a = 19.500      CL =  1.2871
      Cm =  0.0059     CD =  0.10460   =>   CDf =  0.00403    CDp =  0.10057
 plradd ia,ip,cpol           79         101  1.83810201E-03

 Point added to stored polar  1
 Save file unspecified or not available
 Dump file unspecified or not available

.OPERva   c>  
.OPERva   c>  
.OPERva   c>   Calculating wake trajectory ...
 Calculating source influence matrix ...

 Solving BL system ...

 Side 1  free  transition at x/c =  0.0243   38
 Side 2 forced transition at x/c =  1.0000   60

   1   rms: 0.6275E-01   max: 0.3350E+00   D at   59  1   RLX: 0.410
       a = 20.000      CL =  1.2815
      Cm =  0.0036     CD =  0.11010   =>   CDf =  0.00404    CDp =  0.10606

 Side 1  free  transition at x/c =  0.0241   38
 Side 2 forced transition at x/c =  1.0000   60

   2   rms: 0.4056E-01   max: 0.2283E+00   D at   59  1
       a = 20.000      CL =  1.2696
      Cm =  0.0002     CD =  0.11763   =>   CDf =  0.00396    CDp =  0.11367

 Side 1  free  transition at x/c =  0.0238   38
 Side 2 forced transition at x/c =  1.0000   60

   3   rms: 0.1245E-01   max: 0.9271E-01   D at   59  1
       a = 20.000      CL =  1.2616
      Cm =  0.0001     CD =  0.11684   =>   CDf =  0.00384    CDp =  0.11300

 Side 1  free  transition at x/c =  0.0239   38
 Side 2 forced transition at x/c =  1.0000   60

   4   rms: 0.1047E-02   max: -.8376E-02   D at   59  1
       a = 20.000      CL =  1.2610
      Cm =  0.0003     CD =  0.11623   =>   CDf =  0.00383    CDp =  0.11240

 Side 1  free  transition at x/c =  0.0239   38
 Side 2 forced transition at x/c =  1.0000   60

   5   rms: 0.7953E-04   max: 0.2799E-03   C at   60  2
       a = 20.000      CL =  1.2610
      Cm =  0.0003     CD =  0.11619   =>   CDf =  0.00383    CDp =  0.11236
 plradd ia,ip,cpol           80         101  1.83810201E-03

 Point added to stored polar  1
 Save file unspecified or not available
 Dump file unspecified or not available

.OPERva   c>  
.OPERva   c>  
.OPERva   c>  
        airfoil                    Re           Mach       Ncrit  XtripT  XtripB     file
       ------------------------  ------------  ----------  -----  ------  ------    -------------------
 >  1  xfoil                     7.000e5       0.000        5.00   1.000   1.000    

Enter polar output filename   s>  
.OPERva   c>  
 ==============================================================
 Polar  1
  
       XFOIL         Version 6.99
  
 Calculated polar for: xfoil                                           
  
 1 1 Reynolds number fixed          Mach number fixed         
  
 xtrf =   1.000 (top)        1.000 (bottom)  
 Mach =   0.000     Re =     0.700 e 6     Ncrit =   5.000
  
   alpha    CL        CD       CDp       CM     Top_Xtr  Bot_Xtr
  ------ -------- --------- --------- -------- -------- --------
 -20.000  -1.2267   0.10630   0.10237  -0.0150   1.0000   0.0245
 -19.500  -1.2519   0.09508   0.09095  -0.0203   1.0000   0.0249
 -19.000  -1.2767   0.08423   0.07988  -0.0253   1.0000   0.0253
 -18.500  -1.2972   0.07428   0.06971  -0.0296   1.0000   0.0257
 -18.000  -1.3162   0.06483   0.06005  -0.0335   1.0000   0.0260
 -17.500  -1.3368   0.05558   0.05060  -0.0371   1.0000   0.0264
 -17.000  -1.3477   0.04801   0.04284  -0.0396   1.0000   0.0269
 -16.500  -1.3492   0.04190   0.03657  -0.0413   1.0000   0.0274
 -16.000  -1.3432   0.03697   0.03148  -0.0421   1.0000   0.0281
 -15.500  -1.3320   0.03291   0.02725  -0.0422   1.0000   0.0288
 -15.000  -1.3158   0.02961   0.02380  -0.0416   1.0000   0.0295
 -14.500  -1.2973   0.02682   0.02086  -0.0404   1.0000   0.0301
 -14.000  -1.2800   0.02429   0.01823  -0.0381   1.0000   0.0310
 -13.500  -1.2570   0.02245   0.01630  -0.0354   1.0000   0.0320
 -13.000  -1.2314   0.02099   0.01474  -0.0322   1.0000   0.0331
 -12.500  -1.2055   0.01982   0.01347  -0.0283   1.0000   0.0340
 -12.000  -1.1817   0.01879   0.01237  -0.0235   1.0000   0.0351
 -11.500  -1.1560   0.01786   0.01140  -0.0187   1.0000   0.0367
 -11.000  -1.1299   0.01711   0.01060  -0.0136   1.0000   0.0382
 -10.000  -1.0228   0.01536   0.00879  -0.0147   0.9935   0.0439
  -9.500  -0.9652   0.01453   0.00797  -0.0159   0.9885   0.0491
  -9.000  -0.9030   0.01374   0.00719  -0.0179   0.9834   0.0561
  -8.500  -0.8449   0.01303   0.00652  -0.0189   0.9763   0.0652
  -8.000  -0.7855   0.01236   0.00589  -0.0201   0.9687   0.0763
  -7.500  -0.7319   0.01173   0.00532  -0.0199   0.9564   0.0892
  -7.000  -0.6791   0.01119   0.00481  -0.0195   0.9426   0.1030
  -6.500  -0.6267   0.01069   0.00436  -0.0188   0.9291   0.1190
  -6.000  -0.5748   0.01018   0.00392  -0.0181   0.9147   0.1405
  -5.500  -0.5222   0.00974   0.00354  -0.0174   0.8994   0.1635
  -5.000  -0.4704   0.00922   0.00316  -0.0166   0.8829   0.2004
  -4.500  -0.4173   0.00882   0.00285  -0.0160   0.8649   0.2334
  -4.000  -0.3635   0.00849   0.00258  -0.0154   0.8445   0.2646
  -3.500  -0.3095   0.00821   0.00235  -0.0149   0.8195   0.2962
  -3.000  -0.2555   0.00798   0.00214  -0.0143   0.7861   0.3284
  -2.500  -0.2030   0.00786   0.00194  -0.0134   0.7278   0.3641
  -2.000  -0.1501   0.00780   0.00182  -0.0127   0.6804   0.4009
  -1.500  -0.0962   0.00776   0.00175  -0.0121   0.6397   0.4354
  -1.000  -0.0421   0.00774   0.00171  -0.0116   0.5985   0.4689
  -0.500   0.0120   0.00776   0.00169  -0.0112   0.5580   0.5031
   0.000   0.0663   0.00779   0.00170  -0.0107   0.5188   0.5374
   0.500   0.1206   0.00785   0.00175  -0.0103   0.4812   0.5720
   1.000   0.1750   0.00793   0.00182  -0.0098   0.4457   0.6070
   1.500   0.2292   0.00806   0.00193  -0.0094   0.4085   0.6404
   2.000   0.2831   0.00825   0.00207  -0.0088   0.3687   0.6729
   2.500   0.3367   0.00847   0.00225  -0.0083   0.3308   0.7044
   3.000   0.3905   0.00870   0.00246  -0.0078   0.2974   0.7334
   3.500   0.4443   0.00899   0.00268  -0.0073   0.2652   0.7592
   4.000   0.4972   0.00928   0.00294  -0.0066   0.2329   0.7833
   4.500   0.5483   0.00962   0.00327  -0.0056   0.1972   0.8164
   5.000   0.5976   0.01004   0.00368  -0.0042   0.1619   0.8656
   5.500   0.6481   0.01043   0.00410  -0.0029   0.1394   0.9110
   6.000   0.7012   0.01097   0.00458  -0.0023   0.1175   0.9436
   6.500   0.7588   0.01153   0.00509  -0.0028   0.1008   0.9650
   7.000   0.8189   0.01215   0.00564  -0.0039   0.0863   0.9791
   7.500   0.8817   0.01284   0.00625  -0.0058   0.0731   0.9882
   8.000   0.9449   0.01355   0.00691  -0.0079   0.0621   0.9948
   8.500   1.0080   0.01432   0.00763  -0.0100   0.0532   0.9999
   9.000   1.0441   0.01496   0.00826  -0.0064   0.0480   1.0000
   9.500   1.0795   0.01567   0.00896  -0.0028   0.0438   1.0000
  10.000   1.1165   0.01639   0.00971   0.0005   0.0407   1.0000
  10.500   1.1529   0.01725   0.01060   0.0036   0.0384   1.0000
  11.000   1.1889   0.01809   0.01151   0.0066   0.0368   1.0000
  11.500   1.2194   0.01908   0.01254   0.0105   0.0352   1.0000
  12.000   1.2476   0.02032   0.01384   0.0142   0.0337   1.0000
  12.500   1.2778   0.02156   0.01519   0.0173   0.0329   1.0000
  13.000   1.3055   0.02305   0.01678   0.0203   0.0319   1.0000
  13.500   1.3303   0.02484   0.01866   0.0230   0.0308   1.0000
  14.000   1.3503   0.02712   0.02104   0.0256   0.0300   1.0000
  14.500   1.3657   0.02996   0.02401   0.0278   0.0292   1.0000
  15.000   1.3828   0.03294   0.02715   0.0292   0.0285   1.0000
  15.500   1.3950   0.03670   0.03107   0.0299   0.0279   1.0000
  16.000   1.4028   0.04126   0.03580   0.0298   0.0272   1.0000
  16.500   1.4043   0.04689   0.04160   0.0288   0.0266   1.0000
  17.000   1.3980   0.05385   0.04874   0.0269   0.0261   1.0000
  17.500   1.3818   0.06250   0.05759   0.0239   0.0257   1.0000
  18.000   1.3581   0.07253   0.06784   0.0199   0.0253   1.0000
  18.500   1.3377   0.08248   0.07801   0.0158   0.0250   1.0000
  19.000   1.3131   0.09327   0.08903   0.0111   0.0247   1.0000
  19.500   1.2871   0.10460   0.10057   0.0059   0.0243   1.0000
  20.000   1.2610   0.11619   0.11236   0.0003   0.0239   1.0000

.OPERva   c>  
 XFOIL   c>  