
 ===================================================
  XFOIL Version 6.99
  Copyright (C) 2000   Mark Drela, Harold Youngren

  This software comes with ABSOLUTELY NO WARRANTY,
    subject to the GNU General Public License.

  Caveat computor
 ===================================================

 File  xfoil.def  not found

   QUIT    Exit program

  .OPER    Direct operating point(s)
  .MDES    Complex mapping design routine
  .QDES    Surface speed design routine
  .GDES    Geometry design routine

   SAVE f  Write airfoil to labeled coordinate file
   PSAV f  Write airfoil to plain coordinate file
   ISAV f  Write airfoil to ISES coordinate file
   MSAV f  Write airfoil to MSES coordinate file
   REVE    Reverse written-airfoil node ordering

   LOAD f  Read buffer airfoil from coordinate file
   NACA i  Set NACA 4,5-digit airfoil and buffer airfoil
   INTE    Set buffer airfoil by interpolating two airfoils
   NORM    Buffer airfoil normalization toggle
   XYCM rr Change CM reference location, currently  0.25000 0.00000

   BEND    Display structural properties of current airfoil

   PCOP    Set current-airfoil panel nodes directly from buffer airfoil points
   PANE    Set current-airfoil panel nodes ( 160 ) based on curvature
  .PPAR    Show/change paneling

  .PLOP    Plotting options

   WDEF f  Write  current-settings file
   RDEF f  Reread current-settings file
   NAME s  Specify new airfoil name
   NINC    Increment name version number

   Z       Zoom    | (available in all menus)
   U       Unzoom  | 

 XFOIL   c>  
 Labeled airfoil file.  Name:  xfoil                                           

 Number of input coordinate points:  35
 Counterclockwise ordering
 Max thickness =     0.120004  at x =   0.300
 Max camber    =     0.019207  at x =   0.400

  LE  x,y  =  -0.00007   0.00132  |   Chord =   1.00007
  TE  x,y  =   1.00000   0.00000  |

 Current airfoil nodes set from buffer airfoil nodes (  35 )

 WARNING: Poor input coordinate distribution
          Excessive panel angle   67.3  at i =  18
          Repaneling with PANE and/or PPAR suggested
           (doing GDES,CADD before repaneling _may_
            improve excessively coarse LE spacing

 XFOIL   c>  
 You are working with the buffer airfoil

.GDES   c>  
Enter flap hinge x location   r>  
  Top    surface:  y =  0.0449     y/t = 1.0
  Bottom surface:  y = -0.0182     y/t = 0.0

Enter flap hinge y location (or 999 to specify y/t)   r>  
 Flap hinge: x,y =  0.75000  0.00000

Enter flap deflection in degrees (+ down)   r>  
 Top breaks: x,y =    0.75636  0.04403      0.75636  0.04403
 Bot breaks: x,y =    0.75100 -0.01818      0.75132 -0.01816
 Max thickness =     0.120019  at x =   0.299
 Max camber    =     0.020976  at x =   0.499

.GDES   c>  
 Current airfoil nodes set from buffer airfoil nodes (  38 )

.GDES   c>  
 XFOIL   c>  
 Blunt trailing edge.  Gap =  0.00260

 Paneling parameters used...
   Number of panel nodes       160
   Panel bunching parameter    1.000
   TE/LE panel density ratio   0.150
   Refined-area/LE panel density ratio    0.200
   Top    side refined area x/c limits  1.000 1.000
   Bottom side refined area x/c limits  1.000 1.000

 XFOIL   c>   N    command not recognized.  Type a "?" for list

 XFOIL   c>   200  command not recognized.  Type a "?" for list

 XFOIL   c>  
 XFOIL   c>  
.OPERi   c>   Current iteration limit:          10

Enter new iteration limit   i>  
.OPERi   c>  
 XFOIL   c>  
.OPERi   c>  
 Xtr/c     =  1.0000    top    side
 Xtr/c     =  1.0000    bottom side
 Ncrit     =    9.00   ( 0.070 % turb. level )
 Vacc      =  0.0100

 Klag  =  5.6000     Uxwt  =    1.00
 A     =  6.7000     B     =  0.7500       KCt = 0.01485
 CtiniK=  1.8000     CtiniX=  3.3000

..VPAR   c>  
Enter critical amplification ratio   r>  
..VPAR   c>  
.OPERi   c>  
 XFOIL   c>  
 XFOIL   c>  
.OPERi   c>  
.OPERi   c>  
.OPERi   c>  
 M  =    0.0000
 Re =   1000000

.OPERv   c>  
 Polar  1 newly created for accumulation
 Airfoil archived with polar: xfoil                                           

Enter  polar save filename  OR  <return> for no file   s>  
 Polar save file will NOT be written

Enter  polar dump filename  OR  <return> for no file   s>  
 Polar dump file will NOT be written

 Polar accumulation enabled

.OPERva   c>   Calculating unit vorticity distributions ...
 Calculating wake trajectory ...
 Calculating source influence matrix ...

 Solving BL system ...

 Initializing BL ...
    side            1  ...
 MRCHUE: Inverse mode at  57     Hk =   3.852
 MRCHUE: Inverse mode at  58     Hk =   4.479
 MRCHUE: Inverse mode at  59     Hk =   5.024
 MRCHUE: Inverse mode at  60     Hk =   5.350
    side            2  ...
 MRCHUE: Inverse mode at  28     Hk =   4.535
 MRCHUE: Inverse mode at  29     Hk =   6.081
 MRCHUE: Inverse mode at  30     Hk =   6.321
 MRCHUE: Inverse mode at  31     Hk =   2.500
 MRCHUE: Inverse mode at  45     Hk =   2.500
 MRCHUE: Inverse mode at  46     Hk =   2.500
 MRCHUE: Inverse mode at  47     Hk =   2.500
 MRCHUE: Inverse mode at  48     Hk =   2.500
 MRCHUE: Inverse mode at  49     Hk =   2.500
 MRCHUE: Inverse mode at  50     Hk =   2.500
 MRCHUE: Inverse mode at  51     Hk =   2.500
 MRCHUE: Inverse mode at  52     Hk =   2.500
 MRCHUE: Inverse mode at  53     Hk =   2.500
 MRCHUE: Inverse mode at  54     Hk =   2.500
 MRCHUE: Inverse mode at  55     Hk =   2.500
 MRCHUE: Inverse mode at  56     Hk =   2.500
 MRCHUE: Inverse mode at  57     Hk =   2.500
 MRCHUE: Inverse mode at  58     Hk =   2.500
 MRCHUE: Inverse mode at  59     Hk =   2.500
 MRCHUE: Inverse mode at  60     Hk =   2.500
 MRCHUE: Inverse mode at  61     Hk =   2.500
 MRCHUE: Inverse mode at  62     Hk =   2.500
 MRCHUE: Inverse mode at  63     Hk =   2.500
 MRCHUE: Inverse mode at  64     Hk =   2.500
 MRCHUE: Inverse mode at  65     Hk =   2.500
 MRCHUE: Inverse mode at  66     Hk =   2.500
 MRCHUE: Inverse mode at  67     Hk =   2.500
 MRCHUE: Inverse mode at  68     Hk =   2.500
 MRCHUE: Inverse mode at  69     Hk =   2.500
 MRCHUE: Inverse mode at  70     Hk =   2.500
 MRCHUE: Inverse mode at  71     Hk =   2.500
 MRCHUE: Inverse mode at  72     Hk =   2.500
 MRCHUE: Inverse mode at  73     Hk =   2.500
 MRCHUE: Inverse mode at  74     Hk =   2.500
 MRCHUE: Inverse mode at  75     Hk =   2.500
 MRCHUE: Inverse mode at  76     Hk =   2.500
 MRCHUE: Inverse mode at  77     Hk =   2.500
 MRCHUE: Inverse mode at  78     Hk =   2.500
 MRCHUE: Inverse mode at  79     Hk =   2.500
 MRCHUE: Inverse mode at  80     Hk =   2.500
 MRCHUE: Inverse mode at  81     Hk =   2.500
 MRCHUE: Inverse mode at  82     Hk =   2.500
 MRCHUE: Inverse mode at  83     Hk =   2.500
 MRCHUE: Convergence failed at  84  side 2    Res =  0.4335E+01
 MRCHUE: Inverse mode at  85     Hk =   2.500
 MRCHUE: Inverse mode at  86     Hk =   2.500
 MRCHUE: Inverse mode at  87     Hk =   2.500
 MRCHUE: Inverse mode at  88     Hk =   2.500
 MRCHUE: Inverse mode at  89     Hk =   2.500
 MRCHUE: Inverse mode at  90     Hk =   2.500
 MRCHUE: Inverse mode at  91     Hk =   2.500
 MRCHUE: Inverse mode at  92     Hk =   2.500
 MRCHUE: Inverse mode at  93     Hk =   2.500
 MRCHUE: Inverse mode at  94     Hk =   2.500
 MRCHUE: Inverse mode at  95     Hk =   2.500
 MRCHUE: Inverse mode at  96     Hk =   2.500
 MRCHUE: Inverse mode at  97     Hk =   2.500
 MRCHUE: Convergence failed at  98  side 2    Res =  0.4647E+01
 MRCHUE: Inverse mode at  99     Hk =   2.500
 MRCHUE: Inverse mode at 100     Hk =   2.500
 MRCHUE: Inverse mode at 101     Hk =   2.500
 MRCHUE: Convergence failed at 102  side 2    Res =  0.1262E+02

 MRCHDU: Convergence failed at  84  side 2    Res =  0.1313E+01
 MRCHDU: Convergence failed at  85  side 2    Res =  0.1483E+01
 MRCHDU: Convergence failed at  86  side 2    Res =  0.1537E+01
 MRCHDU: Convergence failed at  87  side 2    Res =  0.1593E+01
 MRCHDU: Convergence failed at  88  side 2    Res =  0.1651E+01
 MRCHDU: Convergence failed at  89  side 2    Res =  0.1711E+01
 MRCHDU: Convergence failed at  90  side 2    Res =  0.1774E+01
 MRCHDU: Convergence failed at  91  side 2    Res =  0.1841E+01
 MRCHDU: Convergence failed at  92  side 2    Res =  0.1910E+01
 MRCHDU: Convergence failed at  93  side 2    Res =  0.1980E+01
 MRCHDU: Convergence failed at  94  side 2    Res =  0.2052E+01
 MRCHDU: Convergence failed at  95  side 2    Res =  0.2124E+01
 MRCHDU: Convergence failed at  96  side 2    Res =  0.2219E+01
 MRCHDU: Convergence failed at  97  side 2    Res =  0.2300E+01
 MRCHDU: Convergence failed at  98  side 2    Res =  0.3442E+01
 MRCHDU: Convergence failed at  99  side 2    Res =  0.3532E+01
 MRCHDU: Convergence failed at 100  side 2    Res =  0.3614E+01
 MRCHDU: Convergence failed at 101  side 2    Res =  0.3687E+01
 MRCHDU: Convergence failed at 102  side 2    Res =  0.1395E+02
 Side 1 forced transition at x/c =  1.0000   60
 Side 2  free  transition at x/c =  0.0046   30

   1   rms: 0.1063E+01   max: -.7754E+01   C at   60  1   RLX: 0.064
       a =-20.000      CL = -2.5019
      Cm =  0.1512     CD =  0.01156   =>   CDf =  0.00331    CDp =  0.00825

 Side 1 forced transition at x/c =  1.0000   60
 Side 2  free  transition at x/c =  0.0047   30

   2   rms: 0.1286E+01   max: -.8419E+01   C at   60  1   RLX: 0.059
       a =-20.000      CL = -2.4643
      Cm =  0.1443     CD =  0.01304   =>   CDf =  0.00345    CDp =  0.00959

 Side 1 forced transition at x/c =  1.0000   60
 Side 2  free  transition at x/c =  0.0047   30

   3   rms: 0.5794E+02   max: 0.2039E+03   C at   60  1   RLX: 0.003
       a =-20.000      CL = -2.4497
      Cm =  0.1186     CD =  0.00853   =>   CDf =  0.00320    CDp =  0.00533

 Side 1 forced transition at x/c =  1.0000   60
 Side 2  free  transition at x/c =  0.0047   30

   4   rms: 0.1002E+01   max: -.7938E+01   C at   60  1   RLX: 0.063
       a =-20.000      CL = -2.4638
      Cm =  0.1243     CD =  0.01296   =>   CDf =  0.00371    CDp =  0.00925

 Side 1 forced transition at x/c =  1.0000   60
 Side 2  free  transition at x/c =  0.0049   31

   5   rms: 0.5932E+00   max: -.3294E+01   C at   60  1   RLX: 0.152
       a =-20.000      CL = -2.3543
      Cm =  0.0970     CD =  0.01431   =>   CDf =  0.00389    CDp =  0.01042

 Side 1 forced transition at x/c =  1.0000   60
 Side 2  free  transition at x/c =  0.0052   31

   6   rms: 0.6531E+00   max: -.2489E+01   C at   60  1   RLX: 0.201
       a =-20.000      CL = -2.2463
      Cm =  0.0774     CD =  0.01971   =>   CDf =  0.00366    CDp =  0.01605

 Side 1 forced transition at x/c =  1.0000   60
 Side 2  free  transition at x/c =  0.0056   31

   7   rms: 0.1150E+01   max: 0.3558E+01   D at  111  2   RLX: 0.176
       a =-20.000      CL = -2.1530
      Cm =  0.0828     CD =  0.03049   =>   CDf =  0.00383    CDp =  0.02666

 Side 1 forced transition at x/c =  1.0000   61
 Side 2  free  transition at x/c =  0.0058   30

   8   rms: 0.1436E+01   max: -.5890E+01   D at   57  2   RLX: 0.085
       a =-20.000      CL = -2.1401
      Cm =  0.0683     CD =  0.02506   =>   CDf =  0.00290    CDp =  0.02217

 Side 1 forced transition at x/c =  1.0000   61
 Side 2  free  transition at x/c =  0.0060   30

   9   rms: 0.4306E+01   max: 0.1280E+02   D at   68  2   RLX: 0.059
       a =-20.000      CL = -2.0962
      Cm =  0.1061     CD =  0.04393   =>   CDf =  0.00328    CDp =  0.04065

 Side 1 forced transition at x/c =  1.0000   61
 Side 2  free  transition at x/c =  0.0061   30

  10   rms: 0.1982E+01   max: -.8614E+01   D at   57  2   RLX: 0.058
       a =-20.000      CL = -2.0745
      Cm =  0.0771     CD =  0.03378   =>   CDf =  0.00296    CDp =  0.03082

 Side 1 forced transition at x/c =  1.0000   61
 Side 2  free  transition at x/c =  0.0062   30

  11   rms: 0.1568E+01   max: 0.5007E+01   D at   64  2   RLX: 0.254
       a =-20.000      CL = -1.7937
      Cm =  0.0851     CD =  0.06780   =>   CDf =  0.00387    CDp =  0.06393

 Side 1 forced transition at x/c =  1.0000   62
 Side 2  free  transition at x/c =  0.0070   30

  12   rms: 0.6691E+01   max: -.3096E+02   D at   54  2   RLX: 0.016
       a =-20.000      CL = -1.7898
      Cm =  0.0503     CD =  0.05356   =>   CDf =  0.00292    CDp =  0.05064

 Side 1 forced transition at x/c =  1.0000   62
 Side 2  free  transition at x/c =  0.0069   30

  13   rms: 0.1158E+01   max: 0.4401E+01   D at   59  2   RLX: 0.324
       a =-20.000      CL = -1.5040
      Cm =  0.0489     CD =  0.09612   =>   CDf =  0.00370    CDp =  0.09242

 Side 1 forced transition at x/c =  1.0000   63
 Side 2  free  transition at x/c =  0.0081   29
 idif Ue xi dudx           1  0.10382999      1.12360716E-02   9.2407742    
 Uenew xinew           2  3.70298186E-03  4.00722027E-04

  14   rms: 0.5776E+01   max: -.2877E+02   D at   51  2   RLX: 0.017
       a =-20.000      CL = -1.5209
      Cm =  0.0230     CD =  0.07268   =>   CDf =  0.00240    CDp =  0.07028

 Side 1 forced transition at x/c =  1.0000   62
 Side 2  free  transition at x/c =  0.0080   30

  15   rms: 0.1227E+01   max: -.7455E+01   D at    2  2   RLX: 0.067
       a =-20.000      CL = -1.4925
      Cm =  0.0305     CD =  0.08791   =>   CDf =  0.00347    CDp =  0.08444

 Side 1 forced transition at x/c =  1.0000   63
 Side 2  free  transition at x/c =  0.0082   29

  16   rms: 0.5026E+01   max: 0.2405E+02   D at   53  2   RLX: 0.062
       a =-20.000      CL = -1.3378
      Cm =  0.0462     CD =  0.12311   =>   CDf =  0.00292    CDp =  0.12019

 Side 1 forced transition at x/c =  1.0000   63
 Side 2  free  transition at x/c =  0.0089   30

  17   rms: 0.1800E+01   max: 0.9322E+01   D at   46  2   RLX: 0.161
       a =-20.000      CL = -1.1320
      Cm =  0.0305     CD =  0.14214   =>   CDf =  0.00292    CDp =  0.13922

 Side 1 forced transition at x/c =  1.0000   64
 Side 2  free  transition at x/c =  0.0098   29

  18   rms: 0.7416E+00   max: 0.3747E+01   D at   41  2   RLX: 0.400
       a =-20.000      CL = -0.9306
      Cm =  0.0214     CD =  0.17272   =>   CDf =  0.00256    CDp =  0.17016

 Side 1 forced transition at x/c =  1.0000   65
 Side 2  free  transition at x/c =  0.0104   28

  19   rms: 0.6975E+00   max: 0.4556E+01   D at   38  2   RLX: 0.329
       a =-20.000      CL = -0.8003
      Cm =  0.0123     CD =  0.18761   =>   CDf =  0.00232    CDp =  0.18529

 Side 1 forced transition at x/c =  1.0000   66
 Side 2  free  transition at x/c =  0.0105   27
 idif Ue xi dudx           1  0.10607073      8.06295872E-03   13.155311    
 Uenew xinew           2  9.88693908E-03  7.51554966E-04

  20   rms: 0.1180E+01   max: -.7026E+01   D at   34  2   RLX: 0.071
       a =-20.000      CL = -0.7636
      Cm = -0.0109     CD =  0.15425   =>   CDf =  0.00182    CDp =  0.15243

 Side 1 forced transition at x/c =  1.0000   65
 Side 2  free  transition at x/c =  0.0107   28

  21   rms: 0.1370E+00   max: 0.1223E+01   D at   37  2
       a =-20.000      CL = -0.8079
      Cm =  0.0152     CD =  0.19744   =>   CDf =  0.00226    CDp =  0.19518

 Side 1 forced transition at x/c =  1.0000   66
 Side 2  free  transition at x/c =  0.0105   27
 idif Ue xi dudx           1  0.10562731      7.84015656E-03   13.472602    
 Uenew xinew           2  7.12367613E-03  5.28752804E-04

  22   rms: 0.8281E+00   max: -.5023E+01   D at   35  2   RLX: 0.100
       a =-20.000      CL = -0.8074
      Cm =  0.0033     CD =  0.16504   =>   CDf =  0.00183    CDp =  0.16321

 Side 1 forced transition at x/c =  1.0000   65
 Side 2  free  transition at x/c =  0.0108   29

  23   rms: 0.2735E-01   max: 0.5220E+00   D at   36  2
       a =-20.000      CL = -0.8336
      Cm =  0.0098     CD =  0.17343   =>   CDf =  0.00206    CDp =  0.17136

 Side 1 forced transition at x/c =  1.0000   65
 Side 2  free  transition at x/c =  0.0106   28

  24   rms: 0.1404E+00   max: 0.1010E+01   D at   36  2
       a =-20.000      CL = -0.7974
      Cm =  0.0168     CD =  0.19214   =>   CDf =  0.00224    CDp =  0.18991

 Side 1 forced transition at x/c =  1.0000   66
 Side 2  free  transition at x/c =  0.0104   27

  25   rms: 0.1862E+00   max: -.1044E+01   D at   32  2   RLX: 0.479
       a =-20.000      CL = -0.8125
      Cm =  0.0097     CD =  0.17146   =>   CDf =  0.00196    CDp =  0.16950

 Side 1 forced transition at x/c =  1.0000   66
 Side 2  free  transition at x/c =  0.0108   28

  26   rms: 0.4130E-01   max: 0.4339E+00   D at   34  2
       a =-20.000      CL = -0.8117
      Cm =  0.0132     CD =  0.18011   =>   CDf =  0.00202    CDp =  0.17809

 Side 1 forced transition at x/c =  1.0000   66
 Side 2  free  transition at x/c =  0.0105   27

  27   rms: 0.1446E+00   max: 0.1016E+01   D at   34  2
       a =-20.000      CL = -0.7770
      Cm =  0.0198     CD =  0.19862   =>   CDf =  0.00200    CDp =  0.19662

 Side 1 forced transition at x/c =  1.0000   66
 Side 2  free  transition at x/c =  0.0101   27

  28   rms: 0.1302E+00   max: -.7546E+00   D at   31  2   RLX: 0.663
       a =-20.000      CL = -0.7924
      Cm =  0.0138     CD =  0.17877   =>   CDf =  0.00191    CDp =  0.17686

 Side 1 forced transition at x/c =  1.0000   66
 Side 2  free  transition at x/c =  0.0106   27

  29   rms: 0.1635E+00   max: 0.1275E+01   D at   33  2
       a =-20.000      CL = -0.7621
      Cm =  0.0219     CD =  0.20322   =>   CDf =  0.00197    CDp =  0.20125

 Side 1 forced transition at x/c =  1.0000   66
 Side 2  free  transition at x/c =  0.0099   27

  30   rms: 0.1375E+00   max: -.7756E+00   D at   30  2   RLX: 0.645
       a =-20.000      CL = -0.7754
      Cm =  0.0150     CD =  0.18290   =>   CDf =  0.00189    CDp =  0.18101

 Side 1 forced transition at x/c =  1.0000   66
 Side 2  free  transition at x/c =  0.0105   27

  31   rms: 0.3069E+00   max: -.1818E+01   D at   32  2   RLX: 0.275
       a =-20.000      CL = -0.8061
      Cm =  0.0134     CD =  0.17669   =>   CDf =  0.00194    CDp =  0.17476

 Side 1 forced transition at x/c =  1.0000   66
 Side 2  free  transition at x/c =  0.0110   28

  32   rms: 0.3030E-01   max: 0.1515E+00   D at   34  2
       a =-20.000      CL = -0.8028
      Cm =  0.0139     CD =  0.17984   =>   CDf =  0.00198    CDp =  0.17786

 Side 1 forced transition at x/c =  1.0000   66
 Side 2  free  transition at x/c =  0.0105   27

  33   rms: 0.4778E+00   max: 0.2953E+01   D at   33  2   RLX: 0.508
       a =-20.000      CL = -0.7629
      Cm =  0.0286     CD =  0.21499   =>   CDf =  0.00197    CDp =  0.21302

 MRCHDU: Convergence failed at  31  side 2    Res =  0.3761E+01
 MRCHDU: Convergence failed at  32  side 2    Res =  0.1376E+01
 Side 1 forced transition at x/c =  1.0000   66
 Side 2  free  transition at x/c =  0.0098   27

  34   rms: 0.2544E+00   max: -.1011E+01   D at   30  2   RLX: 0.495
       a =-20.000      CL = -0.8773
      Cm =  0.0384     CD =  0.17812   =>   CDf =  0.00193    CDp =  0.17619

 Side 1 forced transition at x/c =  1.0000   66
 Side 2  free  transition at x/c =  0.0105   27

  35   rms: 0.1690E+00   max: -.5779E+00   D at   34  2   RLX: 0.710
       a =-20.000      CL = -0.8327
      Cm =  0.0151     CD =  0.17088   =>   CDf =  0.00203    CDp =  0.16885

 Side 1 forced transition at x/c =  1.0000   66
 Side 2  free  transition at x/c =  0.0109   28

  36   rms: 0.2860E-01   max: 0.2617E+00   D at   33  2
       a =-20.000      CL = -0.8207
      Cm =  0.0114     CD =  0.17518   =>   CDf =  0.00203    CDp =  0.17314

 Side 1 forced transition at x/c =  1.0000   66
 Side 2  free  transition at x/c =  0.0106   27

  37   rms: 0.1402E+00   max: 0.8874E+00   D at   34  2
       a =-20.000      CL = -0.7854
      Cm =  0.0184     CD =  0.19505   =>   CDf =  0.00202    CDp =  0.19302

 Side 1 forced transition at x/c =  1.0000   66
 Side 2  free  transition at x/c =  0.0103   27

  38   rms: 0.2417E+00   max: -.1422E+01   D at   32  2   RLX: 0.352
       a =-20.000      CL = -0.8021
      Cm =  0.0125     CD =  0.17483   =>   CDf =  0.00193    CDp =  0.17291

 Side 1 forced transition at x/c =  1.0000   66
 Side 2  free  transition at x/c =  0.0107   27

  39   rms: 0.1301E+00   max: 0.1039E+01   D at   34  2
       a =-20.000      CL = -0.7774
      Cm =  0.0195     CD =  0.19710   =>   CDf =  0.00200    CDp =  0.19510

 Side 1 forced transition at x/c =  1.0000   66
 Side 2  free  transition at x/c =  0.0102   27

  40   rms: 0.1445E+00   max: -.8464E+00   D at   31  2   RLX: 0.591
       a =-20.000      CL = -0.7931
      Cm =  0.0137     CD =  0.17828   =>   CDf =  0.00191    CDp =  0.17637

 Side 1 forced transition at x/c =  1.0000   66
 Side 2  free  transition at x/c =  0.0107   27

  41   rms: 0.2054E+00   max: 0.1563E+01   D at   33  2   RLX: 0.960
       a =-20.000      CL = -0.7560
      Cm =  0.0236     CD =  0.20793   =>   CDf =  0.00197    CDp =  0.20596

 Side 1 forced transition at x/c =  1.0000   66
 Side 2  free  transition at x/c =  0.0099   27

  42   rms: 0.1756E+01   max: 0.1196E+02   D at   33  2   RLX: 0.080
       a =-20.000      CL = -0.6929
      Cm =  0.0143     CD =  0.21023   =>   CDf =  0.00209    CDp =  0.20815

 MRCHDU: Convergence failed at  31  side 2    Res =  0.5902E+01
 Side 1 forced transition at x/c =  1.0000   67
 Side 2  free  transition at x/c =  0.0092   26
 idif Ue xi dudx           1  0.10287292      6.72382116E-03   15.299771    
 Uenew xinew           2  5.79718640E-03  3.78906727E-04

  43   rms: 0.8195E-01   max: 0.9055E+00   D at   31  2
       a =-20.000      CL = -0.7434
      Cm =  0.0227     CD =  0.20115   =>   CDf =  0.00177    CDp =  0.19938

 Side 1 forced transition at x/c =  1.0000   66
 Side 2  free  transition at x/c =  0.0089   27

  44   rms: 0.5081E-01   max: 0.2017E+00   D at   30  2
       a =-20.000      CL = -0.7364
      Cm =  0.0247     CD =  0.20598   =>   CDf =  0.00197    CDp =  0.20401

 Side 1 forced transition at x/c =  1.0000   67
 Side 2  free  transition at x/c =  0.0086   26

  45   rms: 0.8146E-02   max: -.4341E-01   D at   30  2
       a =-20.000      CL = -0.7354
      Cm =  0.0242     CD =  0.20301   =>   CDf =  0.00187    CDp =  0.20114

 Side 1 forced transition at x/c =  1.0000   67
 Side 2  free  transition at x/c =  0.0086   26

  46   rms: 0.8074E-03   max: -.2496E-02   D at   30  2
       a =-20.000      CL = -0.7355
      Cm =  0.0241     CD =  0.20220   =>   CDf =  0.00187    CDp =  0.20033

 Side 1 forced transition at x/c =  1.0000   67
 Side 2  free  transition at x/c =  0.0086   26

  47   rms: 0.1617E-03   max: -.7662E-03   D at  115  2
       a =-20.000      CL = -0.7356
      Cm =  0.0241     CD =  0.20228   =>   CDf =  0.00187    CDp =  0.20041

 Side 1 forced transition at x/c =  1.0000   67
 Side 2  free  transition at x/c =  0.0086   26

  48   rms: 0.1146E-04   max: -.8225E-04   D at  116  2
       a =-20.000      CL = -0.7356
      Cm =  0.0241     CD =  0.20230   =>   CDf =  0.00187    CDp =  0.20043
 plradd ia,ip,cpol            1          66  6.05434005E-04

 Point added to stored polar  1
 Save file unspecified or not available
 Dump file unspecified or not available

.OPERva   c>  
.OPERva   c>  
.OPERva   c>   Calculating wake trajectory ...
 Calculating source influence matrix ...

 Solving BL system ...

 Side 1 forced transition at x/c =  1.0000   67
 Side 2  free  transition at x/c =  0.0086   26

   1   rms: 0.3564E-01   max: -.1067E+00   T at   26  2   RLX: 0.391
       a =-19.500      CL = -0.7293
      Cm =  0.0225     CD =  0.19902   =>   CDf =  0.00187    CDp =  0.19716

 Side 1 forced transition at x/c =  1.0000   67
 Side 2  free  transition at x/c =  0.0088   26

   2   rms: 0.2000E-01   max: -.7741E-01   T at   26  2
       a =-19.500      CL = -0.7180
      Cm =  0.0201     CD =  0.19449   =>   CDf =  0.00187    CDp =  0.19262

 Side 1 forced transition at x/c =  1.0000   67
 Side 2  free  transition at x/c =  0.0090   26

   3   rms: 0.9665E-02   max: -.5487E-01   D at   29  2
       a =-19.500      CL = -0.7208
      Cm =  0.0200     CD =  0.19533   =>   CDf =  0.00187    CDp =  0.19347

 Side 1 forced transition at x/c =  1.0000   67
 Side 2  free  transition at x/c =  0.0090   26

   4   rms: 0.2316E-02   max: -.1055E-01   D at   29  2
       a =-19.500      CL = -0.7216
      Cm =  0.0200     CD =  0.19567   =>   CDf =  0.00186    CDp =  0.19381

 Side 1 forced transition at x/c =  1.0000   67
 Side 2  free  transition at x/c =  0.0090   26

   5   rms: 0.3000E-03   max: -.1245E-02   D at  115  2
       a =-19.500      CL = -0.7218
      Cm =  0.0200     CD =  0.19582   =>   CDf =  0.00186    CDp =  0.19396

 Side 1 forced transition at x/c =  1.0000   67
 Side 2  free  transition at x/c =  0.0090   26

   6   rms: 0.2809E-04   max: -.1645E-03   D at  112  2
       a =-19.500      CL = -0.7218
      Cm =  0.0200     CD =  0.19585   =>   CDf =  0.00186    CDp =  0.19398
 plradd ia,ip,cpol            2          66  6.05434005E-04

 Point added to stored polar  1
 Save file unspecified or not available
 Dump file unspecified or not available

.OPERva   c>  
.OPERva   c>  
.OPERva   c>   Calculating wake trajectory ...
 Calculating source influence matrix ...

 Solving BL system ...

 Side 1 forced transition at x/c =  1.0000   67
 Side 2  free  transition at x/c =  0.0090   26

   1   rms: 0.3632E-01   max: -.1661E+00   D at   29  2   RLX: 0.407
       a =-19.000      CL = -0.7174
      Cm =  0.0179     CD =  0.19078   =>   CDf =  0.00186    CDp =  0.18892

 Side 1 forced transition at x/c =  1.0000   67
 Side 2  free  transition at x/c =  0.0093   26

   2   rms: 0.5797E-01   max: -.3551E+00   D at   29  2
       a =-19.000      CL = -0.7173
      Cm =  0.0135     CD =  0.17999   =>   CDf =  0.00186    CDp =  0.17813

 Side 1 forced transition at x/c =  1.0000   67
 Side 2  free  transition at x/c =  0.0104   26

   3   rms: 0.5463E-01   max: 0.4105E+00   D at   29  2
       a =-19.000      CL = -0.7132
      Cm =  0.0160     CD =  0.19116   =>   CDf =  0.00189    CDp =  0.18927

 Side 1 forced transition at x/c =  1.0000   67
 Side 2  free  transition at x/c =  0.0097   26

   4   rms: 0.1441E+01   max: 0.9163E+01   D at   29  2   RLX: 0.140
       a =-19.000      CL = -0.6659
      Cm =  0.0198     CD =  0.21314   =>   CDf =  0.00197    CDp =  0.21117

 Side 1 forced transition at x/c =  1.0000   68
 Side 2  free  transition at x/c =  0.0084   24

   5   rms: 0.8287E-01   max: 0.4311E+00   T at   24  2
       a =-19.000      CL = -0.6782
      Cm =  0.0213     CD =  0.20914   =>   CDf =  0.00187    CDp =  0.20727

 Side 1 forced transition at x/c =  1.0000   68
 Side 2  free  transition at x/c =  0.0076   24
 idif Ue xi dudx           1  0.11321168      6.52325153E-03   17.355099    
 Uenew xinew           2  1.71800535E-02  9.89913940E-04

   6   rms: 0.2131E+00   max: -.1151E+01   D at   26  2   RLX: 0.424
       a =-19.000      CL = -0.6881
      Cm =  0.0195     CD =  0.18994   =>   CDf =  0.00177    CDp =  0.18817

 MRCHDU: Convergence failed at  26  side 2    Res =  0.3008E+01
 MRCHDU: Convergence failed at  27  side 2    Res =  0.3588E+01
 MRCHDU: Convergence failed at  28  side 2    Res =  0.1620E+02
 MRCHDU: Convergence failed at  29  side 2    Res =  0.8090E+01
 MRCHDU: Convergence failed at  30  side 2    Res =  0.1635E+02
 MRCHDU: Convergence failed at  31  side 2    Res =  0.9158E+01
 MRCHDU: Convergence failed at  32  side 2    Res =  0.2540E+02
 MRCHDU: Convergence failed at  33  side 2    Res =  0.9252E+01
 MRCHDU: Convergence failed at  34  side 2    Res =  0.7741E+01
 MRCHDU: Convergence failed at  35  side 2    Res =  0.8527E+01
 MRCHDU: Convergence failed at  36  side 2    Res =  0.1689E+02
 MRCHDU: Convergence failed at  37  side 2    Res =  0.2617E+02
 MRCHDU: Convergence failed at  38  side 2    Res =  0.7519E+01
 MRCHDU: Convergence failed at  39  side 2    Res =  0.4592E+01
 MRCHDU: Convergence failed at  40  side 2    Res =  0.8007E+01
 MRCHDU: Convergence failed at  41  side 2    Res =  0.1006E+02
 MRCHDU: Convergence failed at  42  side 2    Res =  0.1578E+02
 MRCHDU: Convergence failed at  43  side 2    Res =  0.3589E+02
 MRCHDU: Convergence failed at  44  side 2    Res =  0.1803E+04
 MRCHDU: Convergence failed at  45  side 2    Res =  0.3639E+02
 MRCHDU: Convergence failed at  46  side 2    Res =  0.1744E+02
 MRCHDU: Convergence failed at  47  side 2    Res =  0.1166E+02
 MRCHDU: Convergence failed at  48  side 2    Res =  0.3336E+02
 MRCHDU: Convergence failed at  49  side 2    Res =  0.5089E+02
 MRCHDU: Convergence failed at  50  side 2    Res =  0.8489E+02
 MRCHDU: Convergence failed at  51  side 2    Res =  0.1087E+03
 MRCHDU: Convergence failed at  52  side 2    Res =  0.2022E+03
 MRCHDU: Convergence failed at  53  side 2    Res =  0.3828E+03
 MRCHDU: Convergence failed at  54  side 2    Res =  0.3344E+03
 MRCHDU: Convergence failed at  55  side 2    Res =  0.2882E+03
 MRCHDU: Convergence failed at  56  side 2    Res =  0.1206E+03
 MRCHDU: Convergence failed at  57  side 2    Res =  0.7901E+02
 MRCHDU: Convergence failed at  58  side 2    Res =  0.9156E+02
 MRCHDU: Convergence failed at  59  side 2    Res =  0.6881E+02
 MRCHDU: Convergence failed at  60  side 2    Res =  0.5625E+02
 MRCHDU: Convergence failed at  61  side 2    Res =  0.7440E+02
 MRCHDU: Convergence failed at  62  side 2    Res =  0.6216E+02
 MRCHDU: Convergence failed at  63  side 2    Res =  0.5415E+02
 MRCHDU: Convergence failed at  64  side 2    Res =  0.4852E+02
 MRCHDU: Convergence failed at  65  side 2    Res =  0.4441E+02
 MRCHDU: Convergence failed at  66  side 2    Res =  0.4129E+02
 MRCHDU: Convergence failed at  67  side 2    Res =  0.3898E+02
 MRCHDU: Convergence failed at  68  side 2    Res =  0.3727E+02
 MRCHDU: Convergence failed at  69  side 2    Res =  0.3602E+02
 MRCHDU: Convergence failed at  70  side 2    Res =  0.3509E+02
 MRCHDU: Convergence failed at  71  side 2    Res =  0.3454E+02
 MRCHDU: Convergence failed at  72  side 2    Res =  0.3434E+02
 MRCHDU: Convergence failed at  73  side 2    Res =  0.3439E+02
 MRCHDU: Convergence failed at  74  side 2    Res =  0.3471E+02
 MRCHDU: Convergence failed at  75  side 2    Res =  0.3531E+02
 MRCHDU: Convergence failed at  76  side 2    Res =  0.3630E+02
 MRCHDU: Convergence failed at  77  side 2    Res =  0.3751E+02
 MRCHDU: Convergence failed at  78  side 2    Res =  0.3887E+02
 MRCHDU: Convergence failed at  79  side 2    Res =  0.4187E+02
 MRCHDU: Convergence failed at  80  side 2    Res =  0.7124E+02
 MRCHDU: Convergence failed at  81  side 2    Res =  0.9792E+02
 MRCHDU: Convergence failed at  82  side 2    Res =  0.1620E+03
 MRCHDU: Convergence failed at  83  side 2    Res =  0.4483E+03
 MRCHDU: Convergence failed at  84  side 2    Res =  0.4983E+03
 MRCHDU: Convergence failed at  85  side 2    Res =  0.1535E+03
 MRCHDU: Convergence failed at  86  side 2    Res =  0.2074E+03
 MRCHDU: Convergence failed at  87  side 2    Res =  0.1575E+04
 MRCHDU: Convergence failed at  88  side 2    Res =  0.2620E+03
 MRCHDU: Convergence failed at  89  side 2    Res =  0.1110E+03
 MRCHDU: Convergence failed at  90  side 2    Res =  0.6610E+02
 MRCHDU: Convergence failed at  91  side 2    Res =  0.4528E+02
 MRCHDU: Convergence failed at  92  side 2    Res =  0.5634E+02
 MRCHDU: Convergence failed at  93  side 2    Res =  0.9270E+02
 MRCHDU: Convergence failed at  94  side 2    Res =  0.2626E+03
 MRCHDU: Convergence failed at  95  side 2    Res =  0.4102E+02
 MRCHDU: Convergence failed at 106  side 2    Res =  0.1358E+01
 MRCHDU: Convergence failed at 108  side 2    Res =  0.3566E+01
 MRCHDU: Convergence failed at 109  side 2    Res =  0.8730E+01
 MRCHDU: Convergence failed at 110  side 2    Res =  0.2208E+02
 MRCHDU: Convergence failed at 111  side 2    Res =  0.1059E+01
 MRCHDU: Convergence failed at 112  side 2    Res =  0.1542E+01
 MRCHDU: Convergence failed at 113  side 2    Res =  0.6970E+01
 MRCHDU: Convergence failed at 114  side 2    Res =  0.5358E+01
 Side 1 forced transition at x/c =  1.0000   67
 Side 2  free  transition at x/c =  0.0095   26

   7   rms: 0.6588E+01   max: 0.2239E+02   D at   91  2   RLX: 0.067
       a =-19.000      CL = -2.9980
      Cm =  0.6702     CD =  0.00775   =>   CDf =  0.00127    CDp =  0.00648

 MRCHDU: Convergence failed at  55  side 2    Res =  0.3362E-01
 MRCHDU: Convergence failed at  88  side 2    Res =  0.1340E+01
 MRCHDU: Convergence failed at  89  side 2    Res =  0.1754E+01
 Side 1 forced transition at x/c =  1.0000   67
 Side 2  free  transition at x/c =  0.0091   26
 idif Ue xi dudx           1  0.19705437      1.28173232E-02   15.374065    
 Uenew xinew           2  9.95072350E-02  6.47240877E-03

   8   rms: 0.1621E+01   max: -.7219E+00   T at  116  2   RLX: 0.170
       a =-19.000      CL = -2.3954
      Cm =  0.4108     CD =  0.03488   =>   CDf =  0.00772    CDp =  0.02716

 MRCHDU: Convergence failed at  56  side 2    Res =  0.1679E-01
 Side 1 forced transition at x/c =  1.0000   66
 Side 2  free  transition at x/c =  0.0087   27
 idif Ue xi dudx           1  0.19683456      1.39127374E-02   14.147796    
 Uenew xinew           2  9.33943167E-02  6.60133362E-03

   9   rms: 0.1373E+01   max: -.6644E+00   D at  117  2   RLX: 0.165
       a =-19.000      CL = -2.2719
      Cm =  0.3185     CD =  0.03113   =>   CDf =  0.00724    CDp =  0.02389

 Side 1 forced transition at x/c =  1.0000   65
 Side 2  free  transition at x/c =  0.0085   28

  10   rms: 0.1333E+02   max: 0.5615E+02   D at   51  2   RLX: 0.007
       a =-19.000      CL = -2.2747
      Cm =  0.3147     CD =  0.03187   =>   CDf =  0.00715    CDp =  0.02472

 MRCHDU: Convergence failed at  44  side 2    Res =  0.6388E+01
 MRCHDU: Convergence failed at  45  side 2    Res =  0.1702E+01
 Side 1 forced transition at x/c =  1.0000   65
 Side 2  free  transition at x/c =  0.0084   28
 idif Ue xi dudx           1  0.15957683      1.23780966E-02   12.891871    
 Uenew xinew           2  5.10650463E-02  3.96102667E-03

  11   rms: 0.1266E+01   max: -.2699E+01   C at   57  2   RLX: 0.143
       a =-19.000      CL = -2.2517
      Cm =  0.2499     CD =  0.02858   =>   CDf =  0.00703    CDp =  0.02156

 MRCHDU: Convergence failed at  54  side 2    Res =  0.9279E+00
 MRCHDU: Convergence failed at  55  side 2    Res =  0.1527E+01
 MRCHDU: Convergence failed at  56  side 2    Res =  0.2932E+01
 MRCHDU: Convergence failed at  57  side 2    Res =  0.7912E+00
 Side 1 forced transition at x/c =  1.0000   64
 Side 2  free  transition at x/c =  0.0082   28
 idif Ue xi dudx           1  0.15282990      1.37742162E-02   11.095361    
 Uenew xinew           2  4.62636910E-02  4.16964293E-03

  12   rms: 0.9851E+00   max: -.6811E+00   D at  107  2   RLX: 0.304
       a =-19.000      CL = -2.1994
      Cm =  0.1561     CD =  0.02533   =>   CDf =  0.00730    CDp =  0.01803

 Side 1 forced transition at x/c =  1.0000   63
 Side 2  free  transition at x/c =  0.0081   29

  13   rms: 0.1002E+01   max: -.3414E+01   D at   75  2   RLX: 0.138
       a =-19.000      CL = -2.1321
      Cm =  0.1233     CD =  0.02297   =>   CDf =  0.00674    CDp =  0.01623

 MRCHDU: Convergence failed at  61  side 2    Res =  0.3586E+00
 MRCHDU: Convergence failed at  68  side 2    Res =  0.1983E+00
 MRCHDU: Convergence failed at  69  side 2    Res =  0.5046E+00
 MRCHDU: Convergence failed at  70  side 2    Res =  0.3017E+00
 MRCHDU: Convergence failed at  71  side 2    Res =  0.3654E+00
 MRCHDU: Convergence failed at  72  side 2    Res =  0.4001E+01
 MRCHDU: Convergence failed at  73  side 2    Res =  0.4965E+00
 MRCHDU: Convergence failed at  74  side 2    Res =  0.3843E+00
 Side 1 forced transition at x/c =  1.0000   63
 Side 2  free  transition at x/c =  0.0080   29
 idif Ue xi dudx           1  0.13018595      1.32665634E-02   9.8130875    
 Uenew xinew           2  2.38577146E-02  2.43121386E-03

  14   rms: 0.7743E+00   max: -.7877E+00   D at  108  2   RLX: 0.320
       a =-19.000      CL = -2.1674
      Cm =  0.0980     CD =  0.02046   =>   CDf =  0.00815    CDp =  0.01231

 MRCHDU: Convergence failed at  51  side 2    Res =  0.7924E+00
 MRCHDU: Convergence failed at  52  side 2    Res =  0.1279E+01
 MRCHDU: Convergence failed at  53  side 2    Res =  0.9687E+00
 MRCHDU: Convergence failed at  79  side 2    Res =  0.1028E+01
 MRCHDU: Convergence failed at  80  side 2    Res =  0.1098E+01
 MRCHDU: Convergence failed at  81  side 2    Res =  0.1265E+01
 MRCHDU: Convergence failed at  82  side 2    Res =  0.1904E+01
 MRCHDU: Convergence failed at  83  side 2    Res =  0.3071E+01
 MRCHDU: Convergence failed at  84  side 2    Res =  0.9147E+01
 MRCHDU: Convergence failed at  85  side 2    Res =  0.7293E+01
 MRCHDU: Convergence failed at  86  side 2    Res =  0.3244E+01
 MRCHDU: Convergence failed at  87  side 2    Res =  0.2156E+01
 MRCHDU: Convergence failed at  88  side 2    Res =  0.1684E+01
 MRCHDU: Convergence failed at  89  side 2    Res =  0.1369E+01
 MRCHDU: Convergence failed at  90  side 2    Res =  0.1320E+01
 MRCHDU: Convergence failed at  91  side 2    Res =  0.1376E+02
 MRCHDU: Convergence failed at  95  side 2    Res =  0.2054E+01
 MRCHDU: Convergence failed at  96  side 2    Res =  0.1959E+01
 MRCHDU: Convergence failed at  97  side 2    Res =  0.2110E+01
 MRCHDU: Convergence failed at  98  side 2    Res =  0.2376E+01
 MRCHDU: Convergence failed at  99  side 2    Res =  0.2563E+01
 MRCHDU: Convergence failed at 100  side 2    Res =  0.2692E+01
 Side 1 forced transition at x/c =  1.0000   62
 Side 2  free  transition at x/c =  0.0078   30

  15   rms: 0.5263E+00   max: 0.8012E+00   D at  112  2   RLX: 0.643
       a =-19.000      CL = -1.9083
      Cm =  0.0020     CD =  0.02024   =>   CDf =  0.00728    CDp =  0.01296

 Side 1 forced transition at x/c =  1.0000   62
 Side 2  free  transition at x/c =  0.0078   30

  16   rms: 0.4174E+00   max: 0.1244E+01   D at  110  2   RLX: 0.470
       a =-19.000      CL = -1.6807
      Cm = -0.0365     CD =  0.03233   =>   CDf =  0.00496    CDp =  0.02737

 Side 1 forced transition at x/c =  1.0000   62
 Side 2  free  transition at x/c =  0.0081   30

  17   rms: 0.5473E+00   max: 0.1900E+01   D at   93  2   RLX: 0.439
       a =-19.000      CL = -1.5080
      Cm = -0.0403     CD =  0.04640   =>   CDf =  0.00458    CDp =  0.04182

 Side 1 forced transition at x/c =  1.0000   63
 Side 2  free  transition at x/c =  0.0085   30

  18   rms: 0.6370E+00   max: 0.2568E+01   D at   75  2   RLX: 0.331
       a =-19.000      CL = -1.4154
      Cm = -0.0294     CD =  0.06722   =>   CDf =  0.00366    CDp =  0.06356

 Side 1 forced transition at x/c =  1.0000   63
 Side 2  free  transition at x/c =  0.0091   30

  19   rms: 0.9081E+00   max: 0.3941E+01   D at   61  2   RLX: 0.381
       a =-19.000      CL = -1.2756
      Cm = -0.0122     CD =  0.09947   =>   CDf =  0.00331    CDp =  0.09616

 Side 1 forced transition at x/c =  1.0000   63
 Side 2  free  transition at x/c =  0.0098   30

  20   rms: 0.1110E+01   max: 0.5525E+01   D at   53  2   RLX: 0.271
       a =-19.000      CL = -1.1226
      Cm = -0.0079     CD =  0.11856   =>   CDf =  0.00327    CDp =  0.11528

 Side 1 forced transition at x/c =  1.0000   64
 Side 2  free  transition at x/c =  0.0105   29

  21   rms: 0.7428E+00   max: 0.4043E+01   D at   46  2   RLX: 0.371
       a =-19.000      CL = -0.9666
      Cm = -0.0077     CD =  0.14077   =>   CDf =  0.00297    CDp =  0.13780

 Side 1 forced transition at x/c =  1.0000   65
 Side 2  free  transition at x/c =  0.0114   29

  22   rms: 0.1577E+00   max: 0.1040E+01   D at   41  2
       a =-19.000      CL = -0.8980
      Cm = -0.0076     CD =  0.15477   =>   CDf =  0.00238    CDp =  0.15239

 Side 1 forced transition at x/c =  1.0000   65
 Side 2  free  transition at x/c =  0.0118   29

  23   rms: 0.4267E-01   max: 0.3500E+00   D at   39  2
       a =-19.000      CL = -0.8921
      Cm = -0.0066     CD =  0.14651   =>   CDf =  0.00225    CDp =  0.14427

 Side 1 forced transition at x/c =  1.0000   65
 Side 2  free  transition at x/c =  0.0117   29

  24   rms: 0.2068E-01   max: 0.1377E+00   D at   39  2
       a =-19.000      CL = -0.8825
      Cm = -0.0061     CD =  0.14599   =>   CDf =  0.00221    CDp =  0.14378

 Side 1 forced transition at x/c =  1.0000   65
 Side 2  free  transition at x/c =  0.0118   29

  25   rms: 0.2189E-02   max: 0.1607E-01   D at  114  2
       a =-19.000      CL = -0.8813
      Cm = -0.0063     CD =  0.14473   =>   CDf =  0.00219    CDp =  0.14254

 Side 1 forced transition at x/c =  1.0000   65
 Side 2  free  transition at x/c =  0.0118   29

  26   rms: 0.2067E-03   max: 0.1702E-02   D at  114  2
       a =-19.000      CL = -0.8814
      Cm = -0.0064     CD =  0.14458   =>   CDf =  0.00219    CDp =  0.14239

 Side 1 forced transition at x/c =  1.0000   65
 Side 2  free  transition at x/c =  0.0118   29

  27   rms: 0.2960E-04   max: -.1606E-03   D at  116  2
       a =-19.000      CL = -0.8814
      Cm = -0.0064     CD =  0.14460   =>   CDf =  0.00219    CDp =  0.14240
 plradd ia,ip,cpol            3          64  6.05434005E-04

 Point added to stored polar  1
 Save file unspecified or not available
 Dump file unspecified or not available

.OPERva   c>  
.OPERva   c>  
.OPERva   c>   Calculating wake trajectory ...
 Calculating source influence matrix ...

 Solving BL system ...

 Side 1 forced transition at x/c =  1.0000   65
 Side 2  free  transition at x/c =  0.0118   29

   1   rms: 0.1333E+00   max: -.8023E+00   D at   38  2   RLX: 0.522
       a =-18.500      CL = -0.9013
      Cm = -0.0127     CD =  0.13070   =>   CDf =  0.00219    CDp =  0.12851

 Side 1 forced transition at x/c =  1.0000   65
 Side 2  free  transition at x/c =  0.0121   29

   2   rms: 0.7997E-01   max: -.4223E+00   D at   38  2
       a =-18.500      CL = -0.9338
      Cm = -0.0189     CD =  0.11969   =>   CDf =  0.00228    CDp =  0.11740

 Side 1 forced transition at x/c =  1.0000   65
 Side 2  free  transition at x/c =  0.0122   29

   3   rms: 0.3197E-01   max: -.1257E+00   D at   39  2
       a =-18.500      CL = -0.9547
      Cm = -0.0196     CD =  0.11980   =>   CDf =  0.00239    CDp =  0.11741

 Side 1 forced transition at x/c =  1.0000   65
 Side 2  free  transition at x/c =  0.0120   29

   4   rms: 0.3186E-02   max: -.2208E-01   D at  113  2
       a =-18.500      CL = -0.9570
      Cm = -0.0193     CD =  0.12114   =>   CDf =  0.00242    CDp =  0.11872

 Side 1 forced transition at x/c =  1.0000   65
 Side 2  free  transition at x/c =  0.0120   29

   5   rms: 0.4686E-03   max: 0.2731E-02   D at  113  2
       a =-18.500      CL = -0.9567
      Cm = -0.0192     CD =  0.12125   =>   CDf =  0.00241    CDp =  0.11884

 Side 1 forced transition at x/c =  1.0000   65
 Side 2  free  transition at x/c =  0.0120   29

   6   rms: 0.6756E-04   max: 0.3428E-03   D at  113  2
       a =-18.500      CL = -0.9567
      Cm = -0.0192     CD =  0.12123   =>   CDf =  0.00241    CDp =  0.11882
 plradd ia,ip,cpol            4          64  6.05434005E-04

 Point added to stored polar  1
 Save file unspecified or not available
 Dump file unspecified or not available

.OPERva   c>  
.OPERva   c>  
.OPERva   c>   Calculating wake trajectory ...
 Calculating source influence matrix ...

 Solving BL system ...

 Side 1 forced transition at x/c =  1.0000   65
 Side 2  free  transition at x/c =  0.0120   29

   1   rms: 0.1560E+00   max: -.8059E+00   D at   40  2   RLX: 0.620
       a =-18.000      CL = -0.9927
      Cm = -0.0283     CD =  0.10285   =>   CDf =  0.00241    CDp =  0.10045

 Side 1 forced transition at x/c =  1.0000   65
 Side 2  free  transition at x/c =  0.0121   29

   2   rms: 0.1124E+00   max: -.4490E+00   D at   43  2
       a =-18.000      CL = -1.0522
      Cm = -0.0360     CD =  0.08977   =>   CDf =  0.00257    CDp =  0.08720

 Side 1 forced transition at x/c =  1.0000   65
 Side 2  free  transition at x/c =  0.0118   29
 idif Ue xi dudx           1  0.12151565      9.75656509E-03   12.454758    
 Uenew xinew           2  1.66830886E-02  1.33949518E-03

   3   rms: 0.5050E-01   max: -.1662E+00   D at   42  2
       a =-18.000      CL = -1.0865
      Cm = -0.0374     CD =  0.08829   =>   CDf =  0.00242    CDp =  0.08587

 Side 1 forced transition at x/c =  1.0000   64
 Side 2  free  transition at x/c =  0.0115   30

   4   rms: 0.8939E-02   max: -.4075E-01   D at  112  2
       a =-18.000      CL = -1.0932
      Cm = -0.0372     CD =  0.08919   =>   CDf =  0.00279    CDp =  0.08640

 Side 1 forced transition at x/c =  1.0000   64
 Side 2  free  transition at x/c =  0.0114   30

   5   rms: 0.5808E-03   max: -.2995E-02   D at  111  2
       a =-18.000      CL = -1.0937
      Cm = -0.0372     CD =  0.08938   =>   CDf =  0.00280    CDp =  0.08658

 Side 1 forced transition at x/c =  1.0000   64
 Side 2  free  transition at x/c =  0.0114   30

   6   rms: 0.6732E-04   max: 0.2240E-03   D at   46  2
       a =-18.000      CL = -1.0936
      Cm = -0.0372     CD =  0.08939   =>   CDf =  0.00280    CDp =  0.08660
 plradd ia,ip,cpol            5          63  6.05434005E-04

 Point added to stored polar  1
 Save file unspecified or not available
 Dump file unspecified or not available

.OPERva   c>  
.OPERva   c>  
.OPERva   c>   Calculating wake trajectory ...
 Calculating source influence matrix ...

 Solving BL system ...

 Side 1 forced transition at x/c =  1.0000   64
 Side 2  free  transition at x/c =  0.0114   30

   1   rms: 0.2210E+00   max: -.9942E+00   D at   46  2   RLX: 0.503
       a =-17.500      CL = -1.1426
      Cm = -0.0466     CD =  0.07222   =>   CDf =  0.00279    CDp =  0.06943

 Side 1 forced transition at x/c =  1.0000   64
 Side 2  free  transition at x/c =  0.0113   30

   2   rms: 0.1714E+00   max: -.6863E+00   D at   50  2   RLX: 0.729
       a =-17.500      CL = -1.2041
      Cm = -0.0551     CD =  0.05996   =>   CDf =  0.00301    CDp =  0.05695

 Side 1 forced transition at x/c =  1.0000   64
 Side 2  free  transition at x/c =  0.0109   30

   3   rms: 0.6136E-01   max: -.2489E+00   D at   50  2
       a =-17.500      CL = -1.2330
      Cm = -0.0570     CD =  0.05672   =>   CDf =  0.00325    CDp =  0.05348

 Side 1 forced transition at x/c =  1.0000   64
 Side 2  free  transition at x/c =  0.0107   29

   4   rms: 0.1377E-01   max: -.4927E-01   D at  109  2
       a =-17.500      CL = -1.2414
      Cm = -0.0569     CD =  0.05716   =>   CDf =  0.00333    CDp =  0.05383

 Side 1 forced transition at x/c =  1.0000   64
 Side 2  free  transition at x/c =  0.0107   29

   5   rms: 0.2612E-02   max: -.1057E-01   D at  109  2
       a =-17.500      CL = -1.2434
      Cm = -0.0569     CD =  0.05718   =>   CDf =  0.00333    CDp =  0.05385

 Side 1 forced transition at x/c =  1.0000   64
 Side 2  free  transition at x/c =  0.0107   29

   6   rms: 0.4786E-03   max: -.1518E-02   D at  109  2
       a =-17.500      CL = -1.2437
      Cm = -0.0569     CD =  0.05718   =>   CDf =  0.00333    CDp =  0.05384

 Side 1 forced transition at x/c =  1.0000   64
 Side 2  free  transition at x/c =  0.0107   29

   7   rms: 0.1006E-03   max: -.3072E-03   D at  109  2
       a =-17.500      CL = -1.2438
      Cm = -0.0569     CD =  0.05718   =>   CDf =  0.00333    CDp =  0.05384

 Side 1 forced transition at x/c =  1.0000   64
 Side 2  free  transition at x/c =  0.0107   29

   8   rms: 0.2268E-04   max: -.5943E-04   D at   58  2
       a =-17.500      CL = -1.2438
      Cm = -0.0569     CD =  0.05717   =>   CDf =  0.00333    CDp =  0.05384
 plradd ia,ip,cpol            6          63  6.05434005E-04

 Point added to stored polar  1
 Save file unspecified or not available
 Dump file unspecified or not available

.OPERva   c>  
.OPERva   c>  
.OPERva   c>   Calculating wake trajectory ...
 Calculating source influence matrix ...

 Solving BL system ...

 Side 1 forced transition at x/c =  1.0000   64
 Side 2  free  transition at x/c =  0.0107   29

   1   rms: 0.2021E+00   max: -.8572E+00   D at   57  2   RLX: 0.583
       a =-17.000      CL = -1.2718
      Cm = -0.0668     CD =  0.04340   =>   CDf =  0.00332    CDp =  0.04008

 Side 1 forced transition at x/c =  1.0000   64
 Side 2  free  transition at x/c =  0.0107   29

   2   rms: 0.8248E-01   max: -.3211E+00   D at   58  2
       a =-17.000      CL = -1.2881
      Cm = -0.0709     CD =  0.03916   =>   CDf =  0.00360    CDp =  0.03555

 Side 1 forced transition at x/c =  1.0000   64
 Side 2  free  transition at x/c =  0.0107   29

   3   rms: 0.1516E-01   max: -.6827E-01   D at   65  2
       a =-17.000      CL = -1.2951
      Cm = -0.0702     CD =  0.04024   =>   CDf =  0.00375    CDp =  0.03648

 Side 1 forced transition at x/c =  1.0000   64
 Side 2  free  transition at x/c =  0.0107   29

   4   rms: 0.1283E-02   max: -.5833E-02   D at  107  2
       a =-17.000      CL = -1.2961
      Cm = -0.0701     CD =  0.04027   =>   CDf =  0.00375    CDp =  0.03652

 Side 1 forced transition at x/c =  1.0000   64
 Side 2  free  transition at x/c =  0.0107   29

   5   rms: 0.1034E-03   max: -.3848E-03   D at  107  2
       a =-17.000      CL = -1.2962
      Cm = -0.0701     CD =  0.04027   =>   CDf =  0.00375    CDp =  0.03652

 Side 1 forced transition at x/c =  1.0000   64
 Side 2  free  transition at x/c =  0.0107   29

   6   rms: 0.7213E-05   max: -.2053E-04   D at  107  2
       a =-17.000      CL = -1.2962
      Cm = -0.0701     CD =  0.04027   =>   CDf =  0.00375    CDp =  0.03652
 plradd ia,ip,cpol            7          63  6.05434005E-04

 Point added to stored polar  1
 Save file unspecified or not available
 Dump file unspecified or not available

.OPERva   c>  
.OPERva   c>  
.OPERva   c>   Calculating wake trajectory ...
 Calculating source influence matrix ...

 Solving BL system ...

 Side 1 forced transition at x/c =  1.0000   64
 Side 2  free  transition at x/c =  0.0107   29

   1   rms: 0.1210E+00   max: -.4592E+00   D at   70  2
       a =-16.500      CL = -1.3004
      Cm = -0.0786     CD =  0.02995   =>   CDf =  0.00374    CDp =  0.02622

 Side 1 forced transition at x/c =  1.0000   64
 Side 2  free  transition at x/c =  0.0111   30

   2   rms: 0.1836E-01   max: -.1303E+00   D at   72  2
       a =-16.500      CL = -1.3074
      Cm = -0.0758     CD =  0.03221   =>   CDf =  0.00404    CDp =  0.02816

 Side 1 forced transition at x/c =  1.0000   64
 Side 2  free  transition at x/c =  0.0110   30

   3   rms: 0.1231E-02   max: -.1547E-01   D at   72  2
       a =-16.500      CL = -1.3081
      Cm = -0.0756     CD =  0.03226   =>   CDf =  0.00403    CDp =  0.02823

 Side 1 forced transition at x/c =  1.0000   64
 Side 2  free  transition at x/c =  0.0110   30

   4   rms: 0.2955E-04   max: 0.1769E-03   D at  109  2
       a =-16.500      CL = -1.3081
      Cm = -0.0756     CD =  0.03226   =>   CDf =  0.00403    CDp =  0.02823
 plradd ia,ip,cpol            8          63  6.05434005E-04

 Point added to stored polar  1
 Save file unspecified or not available
 Dump file unspecified or not available

.OPERva   c>  
.OPERva   c>  
.OPERva   c>   Calculating wake trajectory ...
 Calculating source influence matrix ...

 Solving BL system ...

 Side 1 forced transition at x/c =  1.0000   64
 Side 2  free  transition at x/c =  0.0110   30

   1   rms: 0.9723E-01   max: -.3295E+00   D at   80  2
       a =-16.000      CL = -1.3051
      Cm = -0.0783     CD =  0.02648   =>   CDf =  0.00402    CDp =  0.02246

 Side 1 forced transition at x/c =  1.0000   64
 Side 2  free  transition at x/c =  0.0116   30

   2   rms: 0.7029E-02   max: -.4658E-01   D at   82  2
       a =-16.000      CL = -1.3071
      Cm = -0.0753     CD =  0.02800   =>   CDf =  0.00425    CDp =  0.02374

 Side 1 forced transition at x/c =  1.0000   64
 Side 2  free  transition at x/c =  0.0115   30

   3   rms: 0.3690E-03   max: 0.1948E-02   D at   91  2
       a =-16.000      CL = -1.3069
      Cm = -0.0753     CD =  0.02801   =>   CDf =  0.00423    CDp =  0.02378

 Side 1 forced transition at x/c =  1.0000   64
 Side 2  free  transition at x/c =  0.0115   30

   4   rms: 0.1103E-04   max: 0.5732E-04   D at   91  2
       a =-16.000      CL = -1.3069
      Cm = -0.0753     CD =  0.02801   =>   CDf =  0.00423    CDp =  0.02378
 plradd ia,ip,cpol            9          63  6.05434005E-04

 Point added to stored polar  1
 Save file unspecified or not available
 Dump file unspecified or not available

.OPERva   c>  
.OPERva   c>  
.OPERva   c>   Calculating wake trajectory ...
 Calculating source influence matrix ...

 Solving BL system ...

 Side 1 forced transition at x/c =  1.0000   64
 Side 2  free  transition at x/c =  0.0115   30

   1   rms: 0.7548E-01   max: 0.3498E+00   C at   64  1
       a =-15.500      CL = -1.2965
      Cm = -0.0733     CD =  0.02499   =>   CDf =  0.00422    CDp =  0.02076

 Side 1 forced transition at x/c =  1.0000   64
 Side 2  free  transition at x/c =  0.0122   30

   2   rms: 0.5138E-02   max: 0.7866E-01   C at   64  1
       a =-15.500      CL = -1.2969
      Cm = -0.0717     CD =  0.02555   =>   CDf =  0.00440    CDp =  0.02115

 Side 1 forced transition at x/c =  1.0000   64
 Side 2  free  transition at x/c =  0.0122   30

   3   rms: 0.1705E-03   max: 0.2872E-02   C at   64  1
       a =-15.500      CL = -1.2968
      Cm = -0.0717     CD =  0.02557   =>   CDf =  0.00439    CDp =  0.02118

 Side 1 forced transition at x/c =  1.0000   64
 Side 2  free  transition at x/c =  0.0122   30

   4   rms: 0.2894E-05   max: -.1783E-04   D at  101  2
       a =-15.500      CL = -1.2968
      Cm = -0.0717     CD =  0.02557   =>   CDf =  0.00439    CDp =  0.02118
 plradd ia,ip,cpol           10          63  6.05434005E-04

 Point added to stored polar  1
 Save file unspecified or not available
 Dump file unspecified or not available

.OPERva   c>  
.OPERva   c>  
.OPERva   c>   Calculating wake trajectory ...
 Calculating source influence matrix ...

 Solving BL system ...

 Side 1 forced transition at x/c =  1.0000   64
 Side 2  free  transition at x/c =  0.0122   30

   1   rms: 0.6922E-01   max: 0.3121E+00   C at   64  1
       a =-15.000      CL = -1.2741
      Cm = -0.0691     CD =  0.02350   =>   CDf =  0.00438    CDp =  0.01912

 Side 1 forced transition at x/c =  1.0000   64
 Side 2  free  transition at x/c =  0.0129   30

   2   rms: 0.4897E-02   max: 0.5421E-01   C at   64  1
       a =-15.000      CL = -1.2721
      Cm = -0.0690     CD =  0.02369   =>   CDf =  0.00454    CDp =  0.01915

 Side 1 forced transition at x/c =  1.0000   64
 Side 2  free  transition at x/c =  0.0129   30

   3   rms: 0.1692E-03   max: 0.3636E-02   C at   64  1
       a =-15.000      CL = -1.2721
      Cm = -0.0690     CD =  0.02369   =>   CDf =  0.00454    CDp =  0.01915

 Side 1 forced transition at x/c =  1.0000   64
 Side 2  free  transition at x/c =  0.0129   30

   4   rms: 0.2597E-05   max: 0.2368E-04   C at   64  1
       a =-15.000      CL = -1.2721
      Cm = -0.0690     CD =  0.02369   =>   CDf =  0.00454    CDp =  0.01915
 plradd ia,ip,cpol           11          63  6.05434005E-04

 Point added to stored polar  1
 Save file unspecified or not available
 Dump file unspecified or not available

.OPERva   c>  
.OPERva   c>  
.OPERva   c>   Calculating wake trajectory ...
 Calculating source influence matrix ...

 Solving BL system ...

 Side 1 forced transition at x/c =  1.0000   64
 Side 2  free  transition at x/c =  0.0129   30

   1   rms: 0.7012E-01   max: 0.3370E+00   C at   64  1
       a =-14.500      CL = -1.2437
      Cm = -0.0663     CD =  0.02200   =>   CDf =  0.00491    CDp =  0.01709

 Side 1 forced transition at x/c =  1.0000   65
 Side 2  free  transition at x/c =  0.0137   30

   2   rms: 0.6259E-02   max: 0.9005E-01   C at   65  1
       a =-14.500      CL = -1.2439
      Cm = -0.0660     CD =  0.02213   =>   CDf =  0.00469    CDp =  0.01743

 Side 1 forced transition at x/c =  1.0000   65
 Side 2  free  transition at x/c =  0.0136   30

   3   rms: 0.4690E-03   max: 0.7625E-02   C at   65  1
       a =-14.500      CL = -1.2441
      Cm = -0.0660     CD =  0.02213   =>   CDf =  0.00469    CDp =  0.01744

 Side 1 forced transition at x/c =  1.0000   65
 Side 2  free  transition at x/c =  0.0136   30

   4   rms: 0.5479E-05   max: 0.7864E-04   C at   65  1
       a =-14.500      CL = -1.2441
      Cm = -0.0660     CD =  0.02213   =>   CDf =  0.00469    CDp =  0.01744
 plradd ia,ip,cpol           12          64  6.05434005E-04

 Point added to stored polar  1
 Save file unspecified or not available
 Dump file unspecified or not available

.OPERva   c>  
.OPERva   c>  
.OPERva   c>   Calculating wake trajectory ...
 Calculating source influence matrix ...

 Solving BL system ...

 Side 1 forced transition at x/c =  1.0000   65
 Side 2  free  transition at x/c =  0.0136   30

   1   rms: 0.7101E-01   max: 0.3960E+00   C at   65  1
       a =-14.000      CL = -1.2164
      Cm = -0.0626     CD =  0.02054   =>   CDf =  0.00469    CDp =  0.01585

 Side 1 forced transition at x/c =  1.0000   65
 Side 2  free  transition at x/c =  0.0150   30

   2   rms: 0.6089E-02   max: -.3799E-01   D at   31  2
       a =-14.000      CL = -1.2154
      Cm = -0.0625     CD =  0.02078   =>   CDf =  0.00477    CDp =  0.01601

 Side 1 forced transition at x/c =  1.0000   65
 Side 2  free  transition at x/c =  0.0147   30

   3   rms: 0.2676E-03   max: 0.3047E-02   C at   65  1
       a =-14.000      CL = -1.2154
      Cm = -0.0625     CD =  0.02078   =>   CDf =  0.00477    CDp =  0.01601

 Side 1 forced transition at x/c =  1.0000   65
 Side 2  free  transition at x/c =  0.0147   30

   4   rms: 0.4818E-05   max: 0.4207E-04   C at   65  1
       a =-14.000      CL = -1.2154
      Cm = -0.0625     CD =  0.02078   =>   CDf =  0.00477    CDp =  0.01601
 plradd ia,ip,cpol           13          64  6.05434005E-04

 Point added to stored polar  1
 Save file unspecified or not available
 Dump file unspecified or not available

.OPERva   c>  
.OPERva   c>  
.OPERva   c>   Calculating wake trajectory ...
 Calculating source influence matrix ...

 Solving BL system ...

 Side 1 forced transition at x/c =  1.0000   65
 Side 2  free  transition at x/c =  0.0147   30

   1   rms: 0.6968E-01   max: -.1144E+00   D at   92  2
       a =-13.500      CL = -1.1850
      Cm = -0.0591     CD =  0.01958   =>   CDf =  0.00477    CDp =  0.01482

 Side 1 forced transition at x/c =  1.0000   65
 Side 2  free  transition at x/c =  0.0158   30

   2   rms: 0.5575E-02   max: 0.4989E-01   D at   61  1
       a =-13.500      CL = -1.1853
      Cm = -0.0588     CD =  0.01968   =>   CDf =  0.00487    CDp =  0.01482

 Side 1  free  transition at x/c =  0.9969   65
 Side 2  free  transition at x/c =  0.0159   30

   3   rms: 0.8144E-02   max: -.1399E+00   D at   65  1
       a =-13.500      CL = -1.1819
      Cm = -0.0596     CD =  0.01964   =>   CDf =  0.00487    CDp =  0.01478

 Side 1  free  transition at x/c =  0.9998   65
 Side 2  free  transition at x/c =  0.0159   30

   4   rms: 0.3166E-03   max: -.5462E-02   C at   65  1
       a =-13.500      CL = -1.1819
      Cm = -0.0595     CD =  0.01965   =>   CDf =  0.00487    CDp =  0.01479

 Side 1  free  transition at x/c =  0.9997   65
 Side 2  free  transition at x/c =  0.0159   30

   5   rms: 0.3167E-05   max: -.1036E-04   D at   94  2
       a =-13.500      CL = -1.1819
      Cm = -0.0595     CD =  0.01965   =>   CDf =  0.00487    CDp =  0.01479
 plradd ia,ip,cpol           14          64  6.05434005E-04

 Point added to stored polar  1
 Save file unspecified or not available
 Dump file unspecified or not available

.OPERva   c>  
.OPERva   c>  
.OPERva   c>   Calculating wake trajectory ...
 Calculating source influence matrix ...

 Solving BL system ...

 Side 1  free  transition at x/c =  0.9997   65
 Side 2  free  transition at x/c =  0.0159   30

   1   rms: 0.7957E-01   max: -.9131E-01   D at  106  2
       a =-13.000      CL = -1.1274
      Cm = -0.0608     CD =  0.01842   =>   CDf =  0.00519    CDp =  0.01323

 Side 1  free  transition at x/c =  0.9969   66
 Side 2  free  transition at x/c =  0.0175   30

   2   rms: 0.9378E-02   max: -.9785E-01   D at   31  2
       a =-13.000      CL = -1.1277
      Cm = -0.0607     CD =  0.01840   =>   CDf =  0.00497    CDp =  0.01343

 Side 1  free  transition at x/c =  0.9968   66
 Side 2  free  transition at x/c =  0.0172   30

   3   rms: 0.1229E-02   max: -.1702E-01   D at   31  2
       a =-13.000      CL = -1.1274
      Cm = -0.0608     CD =  0.01844   =>   CDf =  0.00498    CDp =  0.01346

 Side 1  free  transition at x/c =  0.9968   66
 Side 2  free  transition at x/c =  0.0172   30

   4   rms: 0.2084E-04   max: -.3008E-03   D at   31  2
       a =-13.000      CL = -1.1274
      Cm = -0.0608     CD =  0.01844   =>   CDf =  0.00499    CDp =  0.01345
 plradd ia,ip,cpol           15          65  1.26144243E-03

 Point added to stored polar  1
 Save file unspecified or not available
 Dump file unspecified or not available

.OPERva   c>  
.OPERva   c>  
.OPERva   c>   Calculating wake trajectory ...
 Calculating source influence matrix ...

 Solving BL system ...

 Side 1  free  transition at x/c =  0.9968   66
 Side 2  free  transition at x/c =  0.0172   30

   1   rms: 0.8158E-01   max: 0.2296E+00   D at   30  2
       a =-12.500      CL = -1.0720
      Cm = -0.0621     CD =  0.01726   =>   CDf =  0.00498    CDp =  0.01228

 Side 1  free  transition at x/c =  0.9938   66
 Side 2  free  transition at x/c =  0.0185   30

   2   rms: 0.4297E-02   max: -.3918E-01   D at   30  2
       a =-12.500      CL = -1.0705
      Cm = -0.0622     CD =  0.01740   =>   CDf =  0.00504    CDp =  0.01236

 Side 1  free  transition at x/c =  0.9944   66
 Side 2  free  transition at x/c =  0.0186   30

   3   rms: 0.5085E-04   max: -.4138E-03   D at   31  2
       a =-12.500      CL = -1.0705
      Cm = -0.0622     CD =  0.01740   =>   CDf =  0.00505    CDp =  0.01235
 plradd ia,ip,cpol           16          65  1.26144243E-03

 Point added to stored polar  1
 Save file unspecified or not available
 Dump file unspecified or not available

.OPERva   c>  
.OPERva   c>  
.OPERva   c>   Calculating wake trajectory ...
 Calculating source influence matrix ...

 Solving BL system ...

 Side 1  free  transition at x/c =  0.9944   66
 Side 2  free  transition at x/c =  0.0186   30

   1   rms: 0.8120E-01   max: -.8472E-01   D at  105  2
       a =-12.000      CL = -1.0121
      Cm = -0.0638     CD =  0.01644   =>   CDf =  0.00533    CDp =  0.01110

 Side 1  free  transition at x/c =  0.9924   66
 Side 2  free  transition at x/c =  0.0198   29

   2   rms: 0.6034E-02   max: 0.5271E-01   D at    3  1
       a =-12.000      CL = -1.0147
      Cm = -0.0632     CD =  0.01650   =>   CDf =  0.00515    CDp =  0.01134

 Side 1  free  transition at x/c =  0.9910   66
 Side 2  free  transition at x/c =  0.0199   29

   3   rms: 0.4067E-03   max: -.5300E-02   D at   67  1
       a =-12.000      CL = -1.0145
      Cm = -0.0632     CD =  0.01650   =>   CDf =  0.00515    CDp =  0.01134

 Side 1  free  transition at x/c =  0.9911   66
 Side 2  free  transition at x/c =  0.0199   29

   4   rms: 0.4763E-05   max: -.3031E-04   D at   67  1
       a =-12.000      CL = -1.0145
      Cm = -0.0632     CD =  0.01650   =>   CDf =  0.00515    CDp =  0.01134
 plradd ia,ip,cpol           17          66  1.26144243E-03

 Point added to stored polar  1
 Save file unspecified or not available
 Dump file unspecified or not available

.OPERva   c>  
.OPERva   c>  
.OPERva   c>   Calculating wake trajectory ...
 Calculating source influence matrix ...

 Solving BL system ...

 Side 1  free  transition at x/c =  0.9911   66
 Side 2  free  transition at x/c =  0.0199   29

   1   rms: 0.7967E-01   max: -.7432E-01   D at  104  2
       a =-11.500      CL = -0.9578
      Cm = -0.0642     CD =  0.01567   =>   CDf =  0.00515    CDp =  0.01052

 Side 1  free  transition at x/c =  0.9869   66
 Side 2  free  transition at x/c =  0.0219   30

   2   rms: 0.1759E-01   max: -.1536E+00   D at   31  2
       a =-11.500      CL = -0.9579
      Cm = -0.0644     CD =  0.01545   =>   CDf =  0.00523    CDp =  0.01022

 Side 1  free  transition at x/c =  0.9877   66
 Side 2  free  transition at x/c =  0.0213   30

   3   rms: 0.2967E-02   max: -.4426E-01   D at   31  2
       a =-11.500      CL = -0.9573
      Cm = -0.0644     CD =  0.01556   =>   CDf =  0.00523    CDp =  0.01033

 Side 1  free  transition at x/c =  0.9877   66
 Side 2  free  transition at x/c =  0.0212   30

   4   rms: 0.9341E-04   max: -.1390E-02   D at   31  2
       a =-11.500      CL = -0.9573
      Cm = -0.0644     CD =  0.01556   =>   CDf =  0.00524    CDp =  0.01033
 plradd ia,ip,cpol           18          66  1.26144243E-03

 Point added to stored polar  1
 Save file unspecified or not available
 Dump file unspecified or not available

.OPERva   c>  
.OPERva   c>  
.OPERva   c>   Calculating wake trajectory ...
 Calculating source influence matrix ...

 Solving BL system ...

 Side 1  free  transition at x/c =  0.9877   66
 Side 2  free  transition at x/c =  0.0212   30

   1   rms: 0.8322E-01   max: 0.2241E+00   D at   30  2
       a =-11.000      CL = -0.8986
      Cm = -0.0659     CD =  0.01467   =>   CDf =  0.00549    CDp =  0.00918

 Side 1  free  transition at x/c =  0.9845   67
 Side 2  free  transition at x/c =  0.0224   29

   2   rms: 0.8404E-02   max: -.8698E-01   D at   29  2
       a =-11.000      CL = -0.8981
      Cm = -0.0659     CD =  0.01475   =>   CDf =  0.00528    CDp =  0.00947

 Side 1  free  transition at x/c =  0.9848   67
 Side 2  free  transition at x/c =  0.0225   29

   3   rms: 0.3204E-03   max: -.6437E-03   U at   29  2
       a =-11.000      CL = -0.8981
      Cm = -0.0659     CD =  0.01475   =>   CDf =  0.00529    CDp =  0.00945

 Side 1  free  transition at x/c =  0.9848   67
 Side 2  free  transition at x/c =  0.0225   29

   4   rms: 0.1160E-05   max: -.3687E-05   D at  107  2
       a =-11.000      CL = -0.8981
      Cm = -0.0659     CD =  0.01475   =>   CDf =  0.00529    CDp =  0.00945
 plradd ia,ip,cpol           19          67  1.26144243E-03

 Point added to stored polar  1
 Save file unspecified or not available
 Dump file unspecified or not available

.OPERva   c>  
.OPERva   c>  
.OPERva   c>   Calculating wake trajectory ...
 Calculating source influence matrix ...

 Solving BL system ...

 Side 1  free  transition at x/c =  0.9848   67
 Side 2  free  transition at x/c =  0.0225   29

   1   rms: 0.8215E-01   max: -.7889E-01   D at  102  2
       a =-10.500      CL = -0.8382
      Cm = -0.0675     CD =  0.01400   =>   CDf =  0.00529    CDp =  0.00871

 Side 1  free  transition at x/c =  0.9819   66
 Side 2  free  transition at x/c =  0.0238   29

   2   rms: 0.4879E-02   max: 0.5196E-01   D at   67  1
       a =-10.500      CL = -0.8418
      Cm = -0.0666     CD =  0.01406   =>   CDf =  0.00537    CDp =  0.00868

 Side 1  free  transition at x/c =  0.9796   66
 Side 2  free  transition at x/c =  0.0238   29

   3   rms: 0.9694E-03   max: -.1093E-01   D at   67  1
       a =-10.500      CL = -0.8413
      Cm = -0.0667     CD =  0.01405   =>   CDf =  0.00537    CDp =  0.00868

 Side 1  free  transition at x/c =  0.9800   66
 Side 2  free  transition at x/c =  0.0238   29

   4   rms: 0.1168E-04   max: -.1266E-03   C at   66  1
       a =-10.500      CL = -0.8413
      Cm = -0.0667     CD =  0.01405   =>   CDf =  0.00537    CDp =  0.00868
 plradd ia,ip,cpol           20          67  2.14090641E-03

 Point added to stored polar  1
 Save file unspecified or not available
 Dump file unspecified or not available

.OPERva   c>  
.OPERva   c>  
.OPERva   c>   Calculating wake trajectory ...
 Calculating source influence matrix ...

 Solving BL system ...

 Side 1  free  transition at x/c =  0.9800   66
 Side 2  free  transition at x/c =  0.0238   29

   1   rms: 0.7928E-01   max: -.6808E-01   D at  101  2
       a =-10.000      CL = -0.7855
      Cm = -0.0672     CD =  0.01341   =>   CDf =  0.00560    CDp =  0.00781

 Side 1  free  transition at x/c =  0.9706   66
 Side 2  free  transition at x/c =  0.0251   29

   2   rms: 0.1763E-01   max: 0.1949E+00   D at   28  2
       a =-10.000      CL = -0.7803
      Cm = -0.0683     CD =  0.01328   =>   CDf =  0.00547    CDp =  0.00781

 Side 1  free  transition at x/c =  0.9776   67
 Side 2  free  transition at x/c =  0.0250   29

   3   rms: 0.1474E-01   max: 0.2260E+00   C at   67  1
       a =-10.000      CL = -0.7826
      Cm = -0.0678     CD =  0.01335   =>   CDf =  0.00546    CDp =  0.00789

 Side 1  free  transition at x/c =  0.9739   67
 Side 2  free  transition at x/c =  0.0248   29

   4   rms: 0.1113E-02   max: -.1598E-01   D at   67  1
       a =-10.000      CL = -0.7834
      Cm = -0.0676     CD =  0.01337   =>   CDf =  0.00547    CDp =  0.00791

 Side 1  free  transition at x/c =  0.9736   67
 Side 2  free  transition at x/c =  0.0247   29

   5   rms: 0.1625E-04   max: -.2120E-03   C at   67  1
       a =-10.000      CL = -0.7834
      Cm = -0.0676     CD =  0.01337   =>   CDf =  0.00547    CDp =  0.00791
 plradd ia,ip,cpol           21          68  2.14090641E-03

 Point added to stored polar  1
 Save file unspecified or not available
 Dump file unspecified or not available

.OPERva   c>  
.OPERva   c>  
.OPERva   c>   Calculating wake trajectory ...
 Calculating source influence matrix ...

 Solving BL system ...

 Side 1  free  transition at x/c =  0.9736   67
 Side 2  free  transition at x/c =  0.0247   29

   1   rms: 0.8981E-01   max: -.1218E+00   D at  100  2
       a = -9.500      CL = -0.7260
      Cm = -0.0687     CD =  0.01226   =>   CDf =  0.00547    CDp =  0.00679

 Side 1  free  transition at x/c =  0.9685   66
 Side 2  free  transition at x/c =  0.0272   29

   2   rms: 0.1431E-01   max: -.5162E-01   D at   30  2
       a = -9.500      CL = -0.7304
      Cm = -0.0675     CD =  0.01257   =>   CDf =  0.00552    CDp =  0.00705

 Side 1  free  transition at x/c =  0.9640   66
 Side 2  free  transition at x/c =  0.0264   29

   3   rms: 0.2438E-02   max: -.3052E-01   C at   66  1
       a = -9.500      CL = -0.7297
      Cm = -0.0676     CD =  0.01258   =>   CDf =  0.00551    CDp =  0.00706

 Side 1  free  transition at x/c =  0.9648   66
 Side 2  free  transition at x/c =  0.0264   29

   4   rms: 0.6569E-04   max: -.5657E-03   D at   66  1
       a = -9.500      CL = -0.7298
      Cm = -0.0676     CD =  0.01258   =>   CDf =  0.00551    CDp =  0.00706
 plradd ia,ip,cpol           22          68  2.14090641E-03

 Point added to stored polar  1
 Save file unspecified or not available
 Dump file unspecified or not available

.OPERva   c>  
.OPERva   c>  
.OPERva   c>   Calculating wake trajectory ...
 Calculating source influence matrix ...

 Solving BL system ...

 Side 1  free  transition at x/c =  0.9648   66
 Side 2  free  transition at x/c =  0.0264   29

   1   rms: 0.8095E-01   max: -.7709E-01   D at  100  2
       a = -9.000      CL = -0.6748
      Cm = -0.0677     CD =  0.01192   =>   CDf =  0.00572    CDp =  0.00621

 Side 1  free  transition at x/c =  0.9569   66
 Side 2  free  transition at x/c =  0.0277   28

   2   rms: 0.7102E-02   max: 0.7509E-01   D at    3  1
       a = -9.000      CL = -0.6748
      Cm = -0.0677     CD =  0.01197   =>   CDf =  0.00557    CDp =  0.00640

 Side 1  free  transition at x/c =  0.9571   66
 Side 2  free  transition at x/c =  0.0278   28

   3   rms: 0.2705E-03   max: 0.2115E-02   D at    4  1
       a = -9.000      CL = -0.6748
      Cm = -0.0677     CD =  0.01198   =>   CDf =  0.00558    CDp =  0.00640

 Side 1  free  transition at x/c =  0.9571   66
 Side 2  free  transition at x/c =  0.0277   28

   4   rms: 0.7352E-06   max: 0.3376E-05   T at   66  1
       a = -9.000      CL = -0.6748
      Cm = -0.0677     CD =  0.01198   =>   CDf =  0.00558    CDp =  0.00640
 plradd ia,ip,cpol           23          69  3.25481407E-03

 Point added to stored polar  1
 Save file unspecified or not available
 Dump file unspecified or not available

.OPERva   c>  
.OPERva   c>  
.OPERva   c>   Calculating wake trajectory ...
 Calculating source influence matrix ...

 Solving BL system ...

 Side 1  free  transition at x/c =  0.9571   66
 Side 2  free  transition at x/c =  0.0277   28

   1   rms: 0.7739E-01   max: -.7288E-01   D at   89  2
       a = -8.500      CL = -0.6227
      Cm = -0.0671     CD =  0.01144   =>   CDf =  0.00558    CDp =  0.00586

 Side 1  free  transition at x/c =  0.9438   65
 Side 2  free  transition at x/c =  0.0288   28

   2   rms: 0.1005E-01   max: -.1721E+00   D at   66  1
       a = -8.500      CL = -0.6208
      Cm = -0.0674     CD =  0.01145   =>   CDf =  0.00585    CDp =  0.00560

 Side 1  free  transition at x/c =  0.9495   67
 Side 2  free  transition at x/c =  0.0290   27

   3   rms: 0.7167E-02   max: 0.1112E+00   C at   67  1
       a = -8.500      CL = -0.6210
      Cm = -0.0674     CD =  0.01144   =>   CDf =  0.00565    CDp =  0.00580

 Side 1  free  transition at x/c =  0.9472   67
 Side 2  free  transition at x/c =  0.0290   27

   4   rms: 0.7037E-03   max: -.8092E-02   D at   69  1
       a = -8.500      CL = -0.6213
      Cm = -0.0673     CD =  0.01145   =>   CDf =  0.00566    CDp =  0.00579

 Side 1  free  transition at x/c =  0.9470   67
 Side 2  free  transition at x/c =  0.0290   27

   5   rms: 0.1349E-01   max: -.2399E+00   D at    2  1
       a = -8.500      CL = -0.6213
      Cm = -0.0673     CD =  0.01145   =>   CDf =  0.00566    CDp =  0.00579

 Side 1  free  transition at x/c =  0.9470   67
 Side 2  free  transition at x/c =  0.0290   27

   6   rms: 0.1735E-03   max: -.2902E-02   D at    2  1
       a = -8.500      CL = -0.6213
      Cm = -0.0673     CD =  0.01145   =>   CDf =  0.00566    CDp =  0.00579

 Side 1  free  transition at x/c =  0.9470   67
 Side 2  free  transition at x/c =  0.0290   27

   7   rms: 0.4411E-04   max: -.6068E-03   D at    3  1
       a = -8.500      CL = -0.6213
      Cm = -0.0673     CD =  0.01145   =>   CDf =  0.00566    CDp =  0.00579
 plradd ia,ip,cpol           24          70  3.25481407E-03

 Point added to stored polar  1
 Save file unspecified or not available
 Dump file unspecified or not available

.OPERva   c>  
.OPERva   c>  
.OPERva   c>   Calculating wake trajectory ...
 Calculating source influence matrix ...

 Solving BL system ...

 Side 1  free  transition at x/c =  0.9470   67
 Side 2  free  transition at x/c =  0.0290   27
 idif Ue xi dudx           1  0.11828913      3.95053625E-03   29.942549    
 Uenew xinew           2  1.40992488E-04  4.70876694E-06

   1   rms: 0.3155E+02   max: -.5799E+03   D at    2  1   RLX: 0.001
       a = -8.000      CL = -0.6213
      Cm = -0.0673     CD =  0.01145   =>   CDf =  0.00546    CDp =  0.00599

 Side 1  free  transition at x/c =  0.9470   66
 Side 2  free  transition at x/c =  0.0290   28

   2   rms: 0.4063E+01   max: -.7189E+02   D at    2  2   RLX: 0.007
       a = -8.000      CL = -0.6209
      Cm = -0.0673     CD =  0.01144   =>   CDf =  0.00584    CDp =  0.00561

 Side 1  free  transition at x/c =  0.9470   67
 Side 2  free  transition at x/c =  0.0290   27

   3   rms: 0.6274E+00   max: -.1086E+02   D at    2  1   RLX: 0.046
       a = -8.000      CL = -0.6184
      Cm = -0.0673     CD =  0.01142   =>   CDf =  0.00566    CDp =  0.00576

 Side 1  free  transition at x/c =  0.9465   67
 Side 2  free  transition at x/c =  0.0290   27

   4   rms: 0.7601E-01   max: -.6396E-01   D at   96  2
       a = -8.000      CL = -0.5668
      Cm = -0.0671     CD =  0.01097   =>   CDf =  0.00566    CDp =  0.00531

 Side 1  free  transition at x/c =  0.9378   66
 Side 2  free  transition at x/c =  0.0301   28

   5   rms: 0.5037E-02   max: 0.6129E-01   D at   27  2
       a = -8.000      CL = -0.5681
      Cm = -0.0669     CD =  0.01089   =>   CDf =  0.00573    CDp =  0.00516

 Side 1  free  transition at x/c =  0.9359   66
 Side 2  free  transition at x/c =  0.0302   28

   6   rms: 0.2803E-03   max: -.4439E-02   C at   66  1
       a = -8.000      CL = -0.5681
      Cm = -0.0669     CD =  0.01089   =>   CDf =  0.00573    CDp =  0.00515

 Side 1  free  transition at x/c =  0.9360   66
 Side 2  free  transition at x/c =  0.0302   28

   7   rms: 0.2235E-05   max: -.1920E-04   D at   67  1
       a = -8.000      CL = -0.5681
      Cm = -0.0669     CD =  0.01089   =>   CDf =  0.00573    CDp =  0.00515
 plradd ia,ip,cpol           25          70  4.62228665E-03

 Point added to stored polar  1
 Save file unspecified or not available
 Dump file unspecified or not available

.OPERva   c>  
.OPERva   c>  
.OPERva   c>   Calculating wake trajectory ...
 Calculating source influence matrix ...

 Solving BL system ...

 Side 1  free  transition at x/c =  0.9360   66
 Side 2  free  transition at x/c =  0.0302   28

   1   rms: 0.8255E-01   max: -.8952E-01   D at   87  2
       a = -7.500      CL = -0.5154
      Cm = -0.0663     CD =  0.01026   =>   CDf =  0.00591    CDp =  0.00435

 Side 1  free  transition at x/c =  0.9175   66
 Side 2  free  transition at x/c =  0.0328   27

   2   rms: 0.1233E-01   max: -.1511E+00   C at   66  1
       a = -7.500      CL = -0.5152
      Cm = -0.0663     CD =  0.01034   =>   CDf =  0.00581    CDp =  0.00453

 Side 1  free  transition at x/c =  0.9213   66
 Side 2  free  transition at x/c =  0.0321   27

   3   rms: 0.1223E-02   max: 0.1913E-01   C at   66  1
       a = -7.500      CL = -0.5151
      Cm = -0.0663     CD =  0.01035   =>   CDf =  0.00579    CDp =  0.00456

 Side 1  free  transition at x/c =  0.9207   66
 Side 2  free  transition at x/c =  0.0321   27

   4   rms: 0.9266E-05   max: -.1163E-03   C at   66  1
       a = -7.500      CL = -0.5151
      Cm = -0.0663     CD =  0.01035   =>   CDf =  0.00579    CDp =  0.00456
 plradd ia,ip,cpol           26          71  6.27130549E-03

 Point added to stored polar  1
 Save file unspecified or not available
 Dump file unspecified or not available

.OPERva   c>  
.OPERva   c>  
.OPERva   c>   Calculating wake trajectory ...
 Calculating source influence matrix ...

 Solving BL system ...

 Side 1  free  transition at x/c =  0.9207   66
 Side 2  free  transition at x/c =  0.0321   27

   1   rms: 0.8203E-01   max: -.7464E-01   D at   87  2
       a = -7.000      CL = -0.4622
      Cm = -0.0657     CD =  0.00989   =>   CDf =  0.00579    CDp =  0.00409

 Side 1  free  transition at x/c =  0.9052   65
 Side 2  free  transition at x/c =  0.0336   27

   2   rms: 0.7926E-02   max: -.1159E+00   D at   27  2
       a = -7.000      CL = -0.4613
      Cm = -0.0659     CD =  0.00992   =>   CDf =  0.00586    CDp =  0.00405

 Side 1  free  transition at x/c =  0.9050   65
 Side 2  free  transition at x/c =  0.0339   27

   3   rms: 0.3098E-03   max: 0.4540E-02   C at   27  2
       a = -7.000      CL = -0.4613
      Cm = -0.0659     CD =  0.00992   =>   CDf =  0.00587    CDp =  0.00405

 Side 1  free  transition at x/c =  0.9050   65
 Side 2  free  transition at x/c =  0.0339   27

   4   rms: 0.6982E-06   max: 0.2645E-05   D at  110  2
       a = -7.000      CL = -0.4613
      Cm = -0.0659     CD =  0.00992   =>   CDf =  0.00587    CDp =  0.00405
 plradd ia,ip,cpol           27          71  8.23953655E-03

 Point added to stored polar  1
 Save file unspecified or not available
 Dump file unspecified or not available

.OPERva   c>  
.OPERva   c>  
.OPERva   c>   Calculating wake trajectory ...
 Calculating source influence matrix ...

 Solving BL system ...

 Side 1  free  transition at x/c =  0.9050   65
 Side 2  free  transition at x/c =  0.0339   27

   1   rms: 0.8016E-01   max: -.6825E-01   D at   88  2
       a = -6.500      CL = -0.4067
      Cm = -0.0655     CD =  0.00952   =>   CDf =  0.00602    CDp =  0.00350

 Side 1  free  transition at x/c =  0.8914   65
 Side 2  free  transition at x/c =  0.0355   27

   2   rms: 0.5539E-02   max: -.5516E-01   C at   65  1
       a = -6.500      CL = -0.4065
      Cm = -0.0656     CD =  0.00953   =>   CDf =  0.00595    CDp =  0.00358

 Side 1  free  transition at x/c =  0.8924   65
 Side 2  free  transition at x/c =  0.0358   27

   3   rms: 0.3026E-03   max: -.2830E-02   D at   27  2
[...]
       a = 16.000      CL =  1.6156
      Cm = -0.0129     CD =  0.04020   =>   CDf =  0.00531    CDp =  0.03489

 Side 1  free  transition at x/c =  0.0108   30
 Side 2 forced transition at x/c =  1.0000   62

   5   rms: 0.4350E-05   max: -.2488E-04   C at   62  2
       a = 16.000      CL =  1.6156
      Cm = -0.0129     CD =  0.04020   =>   CDf =  0.00531    CDp =  0.03489
 plradd ia,ip,cpol           72          99  1.80171046E-04

 Point added to stored polar  1
 Save file unspecified or not available
 Dump file unspecified or not available

.OPERva   c>  
.OPERva   c>  
.OPERva   c>   Calculating wake trajectory ...
 Calculating source influence matrix ...

 Solving BL system ...

 Side 1  free  transition at x/c =  0.0108   30
 Side 2 forced transition at x/c =  1.0000   62

   1   rms: 0.6948E-01   max: 0.2396E+00   D at   78  1   RLX: 0.753
       a = 16.500      CL =  1.6215
      Cm = -0.0126     CD =  0.04407   =>   CDf =  0.00532    CDp =  0.03875

 Side 1  free  transition at x/c =  0.0103   30
 Side 2 forced transition at x/c =  1.0000   62

   2   rms: 0.2161E-01   max: 0.1305E+00   D at   79  1
       a = 16.500      CL =  1.6176
      Cm = -0.0125     CD =  0.04566   =>   CDf =  0.00521    CDp =  0.04046

 Side 1  free  transition at x/c =  0.0101   30
 Side 2 forced transition at x/c =  1.0000   62

   3   rms: 0.3117E-02   max: 0.2729E-01   D at   78  1
       a = 16.500      CL =  1.6156
      Cm = -0.0124     CD =  0.04559   =>   CDf =  0.00515    CDp =  0.04044

 Side 1  free  transition at x/c =  0.0101   30
 Side 2 forced transition at x/c =  1.0000   62

   4   rms: 0.2195E-03   max: 0.2094E-02   D at   75  2
       a = 16.500      CL =  1.6154
      Cm = -0.0123     CD =  0.04557   =>   CDf =  0.00515    CDp =  0.04043

 Side 1  free  transition at x/c =  0.0101   30
 Side 2 forced transition at x/c =  1.0000   62

   5   rms: 0.9111E-05   max: 0.9186E-04   D at   75  2
       a = 16.500      CL =  1.6154
      Cm = -0.0123     CD =  0.04557   =>   CDf =  0.00515    CDp =  0.04043
 plradd ia,ip,cpol           73          99  1.80171046E-04

 Point added to stored polar  1
 Save file unspecified or not available
 Dump file unspecified or not available

.OPERva   c>  
.OPERva   c>  
.OPERva   c>   Calculating wake trajectory ...
 Calculating source influence matrix ...

 Solving BL system ...

 Side 1  free  transition at x/c =  0.0101   30
 Side 2 forced transition at x/c =  1.0000   62

   1   rms: 0.7116E-01   max: 0.2659E+00   D at   75  1   RLX: 0.689
       a = 17.000      CL =  1.6177
      Cm = -0.0127     CD =  0.04996   =>   CDf =  0.00515    CDp =  0.04481

 Side 1  free  transition at x/c =  0.0097   29
 Side 2 forced transition at x/c =  1.0000   62

   2   rms: 0.2330E-01   max: 0.1303E+00   D at   76  1
       a = 17.000      CL =  1.6164
      Cm = -0.0127     CD =  0.05158   =>   CDf =  0.00502    CDp =  0.04657

 Side 1  free  transition at x/c =  0.0097   29
 Side 2 forced transition at x/c =  1.0000   62

   3   rms: 0.3473E-02   max: 0.2888E-01   D at   75  1
       a = 17.000      CL =  1.6141
      Cm = -0.0126     CD =  0.05152   =>   CDf =  0.00496    CDp =  0.04657

 Side 1  free  transition at x/c =  0.0098   29
 Side 2 forced transition at x/c =  1.0000   62

   4   rms: 0.3210E-03   max: 0.2184E-02   D at   74  1
       a = 17.000      CL =  1.6139
      Cm = -0.0126     CD =  0.05150   =>   CDf =  0.00495    CDp =  0.04655

 Side 1  free  transition at x/c =  0.0098   29
 Side 2 forced transition at x/c =  1.0000   62

   5   rms: 0.2345E-04   max: 0.1210E-03   D at   75  2
       a = 17.000      CL =  1.6139
      Cm = -0.0126     CD =  0.05150   =>   CDf =  0.00495    CDp =  0.04655
 plradd ia,ip,cpol           74          99  1.80171046E-04

 Point added to stored polar  1
 Save file unspecified or not available
 Dump file unspecified or not available

.OPERva   c>  
.OPERva   c>  
.OPERva   c>   Calculating wake trajectory ...
 Calculating source influence matrix ...

 Solving BL system ...

 Side 1  free  transition at x/c =  0.0098   29
 Side 2 forced transition at x/c =  1.0000   62

   1   rms: 0.6851E-01   max: 0.2621E+00   D at   73  1   RLX: 0.638
       a = 17.500      CL =  1.6162
      Cm = -0.0134     CD =  0.05589   =>   CDf =  0.00496    CDp =  0.05094

 Side 1  free  transition at x/c =  0.0095   29
 Side 2 forced transition at x/c =  1.0000   62

   2   rms: 0.2903E-01   max: 0.1595E+00   D at   73  1
       a = 17.500      CL =  1.6112
      Cm = -0.0138     CD =  0.05864   =>   CDf =  0.00484    CDp =  0.05381

 Side 1  free  transition at x/c =  0.0093   29
 Side 2 forced transition at x/c =  1.0000   62

   3   rms: 0.6177E-02   max: 0.4998E-01   D at   72  1
       a = 17.500      CL =  1.6073
      Cm = -0.0137     CD =  0.05863   =>   CDf =  0.00476    CDp =  0.05387

 Side 1  free  transition at x/c =  0.0094   29
 Side 2 forced transition at x/c =  1.0000   62

   4   rms: 0.6742E-03   max: 0.6385E-02   D at   76  2
       a = 17.500      CL =  1.6068
      Cm = -0.0137     CD =  0.05857   =>   CDf =  0.00475    CDp =  0.05383

 Side 1  free  transition at x/c =  0.0094   29
 Side 2 forced transition at x/c =  1.0000   62

   5   rms: 0.4405E-04   max: 0.3863E-03   D at   76  2
       a = 17.500      CL =  1.6067
      Cm = -0.0137     CD =  0.05857   =>   CDf =  0.00475    CDp =  0.05382
 plradd ia,ip,cpol           75          99  1.80171046E-04

 Point added to stored polar  1
 Save file unspecified or not available
 Dump file unspecified or not available

.OPERva   c>  
.OPERva   c>  
.OPERva   c>   Calculating wake trajectory ...
 Calculating source influence matrix ...

 Solving BL system ...

 Side 1  free  transition at x/c =  0.0094   29
 Side 2 forced transition at x/c =  1.0000   62

   1   rms: 0.6945E-01   max: 0.2814E+00   D at   70  1   RLX: 0.587
       a = 18.000      CL =  1.6063
      Cm = -0.0150     CD =  0.06338   =>   CDf =  0.00476    CDp =  0.05863

 Side 1  free  transition at x/c =  0.0091   29
 Side 2 forced transition at x/c =  1.0000   62

   2   rms: 0.3433E-01   max: 0.1857E+00   D at   70  1
       a = 18.000      CL =  1.5986
      Cm = -0.0159     CD =  0.06711   =>   CDf =  0.00464    CDp =  0.06247

 Side 1  free  transition at x/c =  0.0090   29
 Side 2 forced transition at x/c =  1.0000   62

   3   rms: 0.7773E-02   max: 0.5638E-01   D at   68  1
       a = 18.000      CL =  1.5935
      Cm = -0.0158     CD =  0.06700   =>   CDf =  0.00455    CDp =  0.06245

 Side 1  free  transition at x/c =  0.0090   29
 Side 2 forced transition at x/c =  1.0000   62

   4   rms: 0.7060E-03   max: 0.4142E-02   D at   77  2
       a = 18.000      CL =  1.5929
      Cm = -0.0157     CD =  0.06690   =>   CDf =  0.00454    CDp =  0.06237

 Side 1  free  transition at x/c =  0.0090   29
 Side 2 forced transition at x/c =  1.0000   62

   5   rms: 0.4243E-04   max: 0.2683E-03   D at   77  2
       a = 18.000      CL =  1.5929
      Cm = -0.0157     CD =  0.06689   =>   CDf =  0.00453    CDp =  0.06236
 plradd ia,ip,cpol           76          99  1.80171046E-04

 Point added to stored polar  1
 Save file unspecified or not available
 Dump file unspecified or not available

.OPERva   c>  
.OPERva   c>  
.OPERva   c>   Calculating wake trajectory ...
 Calculating source influence matrix ...

 Solving BL system ...

 Side 1  free  transition at x/c =  0.0090   29
 Side 2 forced transition at x/c =  1.0000   62

   1   rms: 0.6956E-01   max: 0.2961E+00   D at   66  1   RLX: 0.540
       a = 18.500      CL =  1.5905
      Cm = -0.0173     CD =  0.07203   =>   CDf =  0.00454    CDp =  0.06749

 Side 1  free  transition at x/c =  0.0088   29
 Side 2 forced transition at x/c =  1.0000   62

   2   rms: 0.3976E-01   max: 0.2114E+00   D at   67  1
       a = 18.500      CL =  1.5799
      Cm = -0.0189     CD =  0.07698   =>   CDf =  0.00444    CDp =  0.07254

 Side 1  free  transition at x/c =  0.0087   29
 Side 2 forced transition at x/c =  1.0000   62

   3   rms: 0.1040E-01   max: 0.7385E-01   D at   65  1
       a = 18.500      CL =  1.5730
      Cm = -0.0187     CD =  0.07676   =>   CDf =  0.00433    CDp =  0.07243

 Side 1  free  transition at x/c =  0.0087   29
 Side 2 forced transition at x/c =  1.0000   62

   4   rms: 0.1115E-02   max: 0.9935E-02   D at   77  2
       a = 18.500      CL =  1.5721
      Cm = -0.0186     CD =  0.07658   =>   CDf =  0.00432    CDp =  0.07227

 Side 1  free  transition at x/c =  0.0087   29
 Side 2 forced transition at x/c =  1.0000   62

   5   rms: 0.5829E-04   max: 0.3370E-03   D at   77  2
       a = 18.500      CL =  1.5720
      Cm = -0.0186     CD =  0.07657   =>   CDf =  0.00431    CDp =  0.07225
 plradd ia,ip,cpol           77          99  1.80171046E-04

 Point added to stored polar  1
 Save file unspecified or not available
 Dump file unspecified or not available

.OPERva   c>  
.OPERva   c>  
.OPERva   c>   Calculating wake trajectory ...
 Calculating source influence matrix ...

 Solving BL system ...

 Side 1  free  transition at x/c =  0.0087   29
 Side 2 forced transition at x/c =  1.0000   62

   1   rms: 0.7144E-01   max: 0.3268E+00   D at   63  1   RLX: 0.496
       a = 19.000      CL =  1.5671
      Cm = -0.0206     CD =  0.08210   =>   CDf =  0.00386    CDp =  0.07825

 Side 1  free  transition at x/c =  0.0086   30
 Side 2 forced transition at x/c =  1.0000   61

   2   rms: 0.4793E-01   max: 0.3424E+00   T at    2  1
       a = 19.000      CL =  1.5537
      Cm = -0.0228     CD =  0.08817   =>   CDf =  0.00422    CDp =  0.08395

 Side 1  free  transition at x/c =  0.0084   30
 Side 2 forced transition at x/c =  1.0000   61

   3   rms: 0.1257E-01   max: 0.9152E-01   D at   63  1
       a = 19.000      CL =  1.5454
      Cm = -0.0227     CD =  0.08797   =>   CDf =  0.00410    CDp =  0.08387

 Side 1  free  transition at x/c =  0.0085   30
 Side 2 forced transition at x/c =  1.0000   61

   4   rms: 0.1289E-02   max: 0.8038E-02   D at   77  2
       a = 19.000      CL =  1.5443
      Cm = -0.0226     CD =  0.08770   =>   CDf =  0.00408    CDp =  0.08362

 Side 1  free  transition at x/c =  0.0085   30
 Side 2 forced transition at x/c =  1.0000   61

   5   rms: 0.7803E-04   max: 0.5961E-03   D at   77  2
       a = 19.000      CL =  1.5443
      Cm = -0.0226     CD =  0.08767   =>   CDf =  0.00408    CDp =  0.08360
 plradd ia,ip,cpol           78         100  1.80171046E-04

 Point added to stored polar  1
 Save file unspecified or not available
 Dump file unspecified or not available

.OPERva   c>  
.OPERva   c>  
.OPERva   c>   Calculating wake trajectory ...
 Calculating source influence matrix ...

 Solving BL system ...

 Side 1  free  transition at x/c =  0.0085   30
 Side 2 forced transition at x/c =  1.0000   61

   1   rms: 0.7579E-01   max: 0.3724E+00   D at   61  1   RLX: 0.455
       a = 19.500      CL =  1.5366
      Cm = -0.0250     CD =  0.09382   =>   CDf =  0.00409    CDp =  0.08974

 Side 1  free  transition at x/c =  0.0084   30
 Side 2 forced transition at x/c =  1.0000   61

   2   rms: 0.4689E-01   max: 0.2578E+00   D at   61  1
       a = 19.500      CL =  1.5209
      Cm = -0.0278     CD =  0.10110   =>   CDf =  0.00399    CDp =  0.09711

 Side 1  free  transition at x/c =  0.0083   30
 Side 2 forced transition at x/c =  1.0000   61

   3   rms: 0.1521E-01   max: 0.1097E+00   D at   60  1
       a = 19.500      CL =  1.5112
      Cm = -0.0277     CD =  0.10067   =>   CDf =  0.00386    CDp =  0.09680

 Side 1  free  transition at x/c =  0.0083   30
 Side 2 forced transition at x/c =  1.0000   61

   4   rms: 0.1433E-02   max: 0.7735E-02   D at   59  1
       a = 19.500      CL =  1.5101
      Cm = -0.0275     CD =  0.10023   =>   CDf =  0.00384    CDp =  0.09640

 Side 1  free  transition at x/c =  0.0083   30
 Side 2 forced transition at x/c =  1.0000   61

   5   rms: 0.7219E-04   max: 0.5477E-03   D at   77  2
       a = 19.500      CL =  1.5100
      Cm = -0.0275     CD =  0.10019   =>   CDf =  0.00384    CDp =  0.09636
 plradd ia,ip,cpol           79         100  1.80171046E-04

 Point added to stored polar  1
 Save file unspecified or not available
 Dump file unspecified or not available

.OPERva   c>  
.OPERva   c>  
.OPERva   c>   Calculating wake trajectory ...
 Calculating source influence matrix ...

 Solving BL system ...

 Side 1  free  transition at x/c =  0.0083   30
 Side 2 forced transition at x/c =  1.0000   61

   1   rms: 0.8051E-01   max: 0.4206E+00   D at   58  1   RLX: 0.419
       a = 20.000      CL =  1.5006
      Cm = -0.0303     CD =  0.10670   =>   CDf =  0.00385    CDp =  0.10286

 Side 1  free  transition at x/c =  0.0082   30
 Side 2 forced transition at x/c =  1.0000   61

   2   rms: 0.5058E-01   max: 0.2906E+00   D at   58  1
       a = 20.000      CL =  1.4827
      Cm = -0.0339     CD =  0.11529   =>   CDf =  0.00375    CDp =  0.11154

 Side 1  free  transition at x/c =  0.0081   30
 Side 2 forced transition at x/c =  1.0000   61

   3   rms: 0.1738E-01   max: 0.1333E+00   D at   57  1
       a = 20.000      CL =  1.4720
      Cm = -0.0339     CD =  0.11482   =>   CDf =  0.00361    CDp =  0.11121

 Side 1  free  transition at x/c =  0.0082   30
 Side 2 forced transition at x/c =  1.0000   61

   4   rms: 0.1800E-02   max: 0.1335E-01   D at   78  2
       a = 20.000      CL =  1.4709
      Cm = -0.0337     CD =  0.11412   =>   CDf =  0.00359    CDp =  0.11053

 Side 1  free  transition at x/c =  0.0082   30
 Side 2 forced transition at x/c =  1.0000   61

   5   rms: 0.9371E-04   max: 0.1684E-02   D at   78  2
       a = 20.000      CL =  1.4709
      Cm = -0.0337     CD =  0.11407   =>   CDf =  0.00359    CDp =  0.11048
 plradd ia,ip,cpol           80         100  1.80171046E-04

 Point added to stored polar  1
 Save file unspecified or not available
 Dump file unspecified or not available

.OPERva   c>  
.OPERva   c>  
.OPERva   c>  
        airfoil                    Re           Mach       Ncrit  XtripT  XtripB     file
       ------------------------  ------------  ----------  -----  ------  ------    -------------------
 >  1  xfoil                     1.000e6       0.000        5.00   1.000   1.000    

Enter polar output filename   s>  
.OPERva   c>  
 ==============================================================
 Polar  1
  
       XFOIL         Version 6.99
  
 Calculated polar for: xfoil                                           
  
 1 1 Reynolds number fixed          Mach number fixed         
  
 xtrf =   1.000 (top)        1.000 (bottom)  
 Mach =   0.000     Re =     1.000 e 6     Ncrit =   5.000
  
   alpha    CL        CD       CDp       CM     Top_Xtr  Bot_Xtr
  ------ -------- --------- --------- -------- -------- --------
 -20.000  -0.7356   0.20230   0.20043   0.0241   1.0000   0.0086
 -19.500  -0.7218   0.19585   0.19398   0.0200   1.0000   0.0090
 -19.000  -0.8814   0.14460   0.14240  -0.0064   1.0000   0.0118
 -18.500  -0.9567   0.12123   0.11882  -0.0192   1.0000   0.0120
 -18.000  -1.0936   0.08939   0.08660  -0.0372   1.0000   0.0114
 -17.500  -1.2438   0.05717   0.05384  -0.0569   1.0000   0.0107
 -17.000  -1.2962   0.04027   0.03652  -0.0701   1.0000   0.0107
 -16.500  -1.3081   0.03226   0.02823  -0.0756   1.0000   0.0110
 -16.000  -1.3069   0.02801   0.02378  -0.0753   1.0000   0.0115
 -15.500  -1.2968   0.02557   0.02118  -0.0717   1.0000   0.0122
 -15.000  -1.2721   0.02369   0.01915  -0.0690   1.0000   0.0129
 -14.500  -1.2441   0.02213   0.01744  -0.0660   1.0000   0.0136
 -14.000  -1.2154   0.02078   0.01601  -0.0625   1.0000   0.0147
 -13.500  -1.1819   0.01965   0.01479  -0.0595   0.9997   0.0159
 -13.000  -1.1274   0.01844   0.01345  -0.0608   0.9968   0.0172
 -12.500  -1.0705   0.01740   0.01235  -0.0622   0.9944   0.0186
 -12.000  -1.0145   0.01650   0.01134  -0.0632   0.9911   0.0199
 -11.500  -0.9573   0.01556   0.01033  -0.0644   0.9877   0.0212
 -11.000  -0.8981   0.01475   0.00945  -0.0659   0.9848   0.0225
 -10.500  -0.8413   0.01405   0.00868  -0.0667   0.9800   0.0238
 -10.000  -0.7834   0.01337   0.00791  -0.0676   0.9736   0.0247
  -9.500  -0.7298   0.01258   0.00706  -0.0676   0.9648   0.0264
  -9.000  -0.6748   0.01198   0.00640  -0.0677   0.9571   0.0277
  -8.500  -0.6213   0.01145   0.00579  -0.0673   0.9470   0.0290
  -8.000  -0.5681   0.01089   0.00515  -0.0669   0.9360   0.0302
  -7.500  -0.5151   0.01035   0.00456  -0.0663   0.9207   0.0321
  -7.000  -0.4613   0.00992   0.00405  -0.0659   0.9050   0.0339
  -6.500  -0.4065   0.00953   0.00359  -0.0656   0.8924   0.0357
  -6.000  -0.3516   0.00913   0.00316  -0.0653   0.8793   0.0399
  -5.000  -0.2409   0.00843   0.00244  -0.0650   0.8514   0.0594
  -4.500  -0.1852   0.00811   0.00216  -0.0649   0.8361   0.0766
  -4.000  -0.1293   0.00788   0.00193  -0.0648   0.8188   0.0921
  -3.500  -0.0734   0.00766   0.00171  -0.0647   0.7976   0.1094
  -3.000  -0.0181   0.00748   0.00151  -0.0645   0.7626   0.1318
  -2.500   0.0356   0.00734   0.00135  -0.0640   0.7150   0.1764
  -2.000   0.0900   0.00718   0.00126  -0.0637   0.6794   0.2339
  -1.500   0.1452   0.00712   0.00121  -0.0635   0.6457   0.2748
  -1.000   0.2002   0.00711   0.00119  -0.0633   0.6085   0.3157
  -0.500   0.2551   0.00712   0.00119  -0.0630   0.5712   0.3612
   0.000   0.3097   0.00705   0.00122  -0.0628   0.5367   0.4337
   0.500   0.3635   0.00687   0.00131  -0.0625   0.5055   0.5581
   1.000   0.4180   0.00690   0.00142  -0.0622   0.4750   0.6259
   1.500   0.4731   0.00694   0.00154  -0.0620   0.4505   0.6808
   2.000   0.5277   0.00703   0.00170  -0.0616   0.4258   0.7330
   2.500   0.5811   0.00720   0.00187  -0.0611   0.3870   0.7802
   3.000   0.6297   0.00725   0.00212  -0.0593   0.3490   0.8886
   3.500   0.6849   0.00772   0.00244  -0.0591   0.2864   0.9725
   4.000   0.7502   0.00846   0.00284  -0.0616   0.2185   1.0000
   4.500   0.7992   0.00901   0.00320  -0.0604   0.1793   1.0000
   5.000   0.8485   0.00960   0.00361  -0.0592   0.1433   1.0000
   5.500   0.8967   0.01032   0.00411  -0.0579   0.1037   1.0000
   6.000   0.9456   0.01099   0.00464  -0.0568   0.0786   1.0000
   6.500   0.9953   0.01156   0.00515  -0.0558   0.0645   1.0000
   7.000   1.0443   0.01218   0.00571  -0.0547   0.0527   1.0000
   7.500   1.0927   0.01282   0.00631  -0.0535   0.0443   1.0000
   8.000   1.1406   0.01347   0.00695  -0.0523   0.0394   1.0000
   8.500   1.1873   0.01417   0.00764  -0.0509   0.0355   1.0000
   9.000   1.2334   0.01486   0.00837  -0.0495   0.0329   1.0000
   9.500   1.2780   0.01560   0.00914  -0.0478   0.0306   1.0000
  10.000   1.3198   0.01648   0.01005  -0.0457   0.0283   1.0000
  10.500   1.3615   0.01725   0.01089  -0.0437   0.0269   1.0000
  11.000   1.3974   0.01814   0.01183  -0.0407   0.0251   1.0000
  11.500   1.4300   0.01921   0.01296  -0.0373   0.0234   1.0000
  12.000   1.4630   0.02026   0.01410  -0.0343   0.0219   1.0000
  12.500   1.4927   0.02156   0.01546  -0.0310   0.0200   1.0000
  13.000   1.5204   0.02303   0.01702  -0.0279   0.0183   1.0000
  13.500   1.5451   0.02478   0.01884  -0.0248   0.0165   1.0000
  14.000   1.5667   0.02686   0.02103  -0.0217   0.0151   1.0000
  14.500   1.5849   0.02934   0.02361  -0.0189   0.0138   1.0000
  15.000   1.5986   0.03238   0.02676  -0.0164   0.0126   1.0000
  15.500   1.6099   0.03586   0.03040  -0.0144   0.0117   1.0000
  16.000   1.6156   0.04020   0.03489  -0.0129   0.0108   1.0000
  16.500   1.6154   0.04557   0.04043  -0.0123   0.0101   1.0000
  17.000   1.6139   0.05150   0.04655  -0.0126   0.0098   1.0000
  17.500   1.6067   0.05857   0.05382  -0.0137   0.0094   1.0000
  18.000   1.5929   0.06689   0.06236  -0.0157   0.0090   1.0000
  18.500   1.5720   0.07657   0.07225  -0.0186   0.0087   1.0000
  19.000   1.5443   0.08767   0.08360  -0.0226   0.0085   1.0000
  19.500   1.5100   0.10019   0.09636  -0.0275   0.0083   1.0000
  20.000   1.4709   0.11407   0.11048  -0.0337   0.0082   1.0000

.OPERva   c>  
 XFOIL   c>  