
 ===================================================
  XFOIL Version 6.99
  Copyright (C) 2000   Mark Drela, Harold Youngren

  This software comes with ABSOLUTELY NO WARRANTY,
    subject to the GNU General Public License.

  Caveat computor
 ===================================================

 File  xfoil.def  not found

   QUIT    Exit program

  .OPER    Direct operating point(s)
  .MDES    Complex mapping design routine
  .QDES    Surface speed design routine
  .GDES    Geometry design routine

   SAVE f  Write airfoil to labeled coordinate file
   PSAV f  Write airfoil to plain coordinate file
   ISAV f  Write airfoil to ISES coordinate file
   MSAV f  Write airfoil to MSES coordinate file
   REVE    Reverse written-airfoil node ordering

   LOAD f  Read buffer airfoil from coordinate file
   NACA i  Set NACA 4,5-digit airfoil and buffer airfoil
   INTE    Set buffer airfoil by interpolating two airfoils
   NORM    Buffer airfoil normalization toggle
   XYCM rr Change CM reference location, currently  0.25000 0.00000

   BEND    Display structural properties of current airfoil

   PCOP    Set current-airfoil panel nodes directly from buffer airfoil points
   PANE    Set current-airfoil panel nodes ( 160 ) based on curvature
  .PPAR    Show/change paneling

  .PLOP    Plotting options

   WDEF f  Write  current-settings file
   RDEF f  Reread current-settings file
   NAME s  Specify new airfoil name
   NINC    Increment name version number

   Z       Zoom    | (available in all menus)
   U       Unzoom  | 

 XFOIL   c>  
 Labeled airfoil file.  Name:  xfoil                                           

 Number of input coordinate points:  35
 Counterclockwise ordering
 Max thickness =     0.120004  at x =   0.300
 Max camber    =     0.019207  at x =   0.400

  LE  x,y  =  -0.00007   0.00132  |   Chord =   1.00007
  TE  x,y  =   1.00000   0.00000  |

 Current airfoil nodes set from buffer airfoil nodes (  35 )

 WARNING: Poor input coordinate distribution
          Excessive panel angle   67.3  at i =  18
          Repaneling with PANE and/or PPAR suggested
           (doing GDES,CADD before repaneling _may_
            improve excessively coarse LE spacing

 XFOIL   c>  
 Blunt trailing edge.  Gap =  0.00260

 Paneling parameters used...
   Number of panel nodes       160
   Panel bunching parameter    1.000
   TE/LE panel density ratio   0.150
   Refined-area/LE panel density ratio    0.200
   Top    side refined area x/c limits  1.000 1.000
   Bottom side refined area x/c limits  1.000 1.000

 XFOIL   c>   N    command not recognized.  Type a "?" for list

 XFOIL   c>   200  command not recognized.  Type a "?" for list

 XFOIL   c>  
 XFOIL   c>  
.OPERi   c>   Current iteration limit:          10

Enter new iteration limit   i>  
.OPERi   c>  
 XFOIL   c>  
.OPERi   c>  
 Xtr/c     =  1.0000    top    side
 Xtr/c     =  1.0000    bottom side
 Ncrit     =    9.00   ( 0.070 % turb. level )
 Vacc      =  0.0100

 Klag  =  5.6000     Uxwt  =    1.00
 A     =  6.7000     B     =  0.7500       KCt = 0.01485
 CtiniK=  1.8000     CtiniX=  3.3000

..VPAR   c>  
Enter critical amplification ratio   r>  
..VPAR   c>  
.OPERi   c>   OPER command not recognized.  Type a "?" for list

.OPERi   c>  
 Xtr/c     =  1.0000    top    side
 Xtr/c     =  1.0000    bottom side
 Ncrit     =    5.00   ( 0.371 % turb. level )
 Vacc      =  0.0100

 Klag  =  5.6000     Uxwt  =    1.00
 A     =  6.7000     B     =  0.7500       KCt = 0.01485
 CtiniK=  1.8000     CtiniX=  3.3000

..VPAR   c>   Trips are entered in x/c (with xtr>0)
                   or s/c (with xtr<0)

Enter top    side Xtrip/c   r>  
Enter bottom side Xtrip/c   r>  
..VPAR   c>  
.OPERi   c>  
 XFOIL   c>  
 XFOIL   c>  
.OPERi   c>  
.OPERi   c>  
.OPERi   c>  
 M  =    0.0000
 Re =   1000000

.OPERv   c>  
 Polar  1 newly created for accumulation
 Airfoil archived with polar: xfoil                                           

Enter  polar save filename  OR  <return> for no file   s>  
 Polar save file will NOT be written

Enter  polar dump filename  OR  <return> for no file   s>  
 Polar dump file will NOT be written

 Polar accumulation enabled

.OPERva   c>   Calculating unit vorticity distributions ...
 Calculating wake trajectory ...
 Calculating source influence matrix ...

 Solving BL system ...

 Initializing BL ...
    side            1  ...
 MRCHUE: Inverse mode at  58     Hk =   4.119
 MRCHUE: Inverse mode at  59     Hk =   4.667
 MRCHUE: Inverse mode at  60     Hk =   4.995
    side            2  ...
 MRCHUE: Inverse mode at  29     Hk =   5.180
 MRCHUE: Inverse mode at  30     Hk =   6.702
 MRCHUE: Inverse mode at  31     Hk =   2.500
 MRCHUE: Inverse mode at  45     Hk =   2.500
 MRCHUE: Inverse mode at  46     Hk =   2.500
 MRCHUE: Inverse mode at  47     Hk =   2.500
 MRCHUE: Inverse mode at  48     Hk =   2.500
 MRCHUE: Inverse mode at  49     Hk =   2.500
 MRCHUE: Inverse mode at  50     Hk =   2.500
 MRCHUE: Inverse mode at  51     Hk =   2.500
 MRCHUE: Inverse mode at  52     Hk =   2.500
 MRCHUE: Inverse mode at  53     Hk =   2.500
 MRCHUE: Inverse mode at  54     Hk =   2.500
 MRCHUE: Inverse mode at  55     Hk =   2.500
 MRCHUE: Inverse mode at  56     Hk =   2.500
 MRCHUE: Inverse mode at  57     Hk =   2.500
 MRCHUE: Inverse mode at  58     Hk =   2.500
 MRCHUE: Inverse mode at  59     Hk =   2.500
 MRCHUE: Inverse mode at  60     Hk =   2.500
 MRCHUE: Inverse mode at  61     Hk =   2.500
 MRCHUE: Inverse mode at  62     Hk =   2.500
 MRCHUE: Inverse mode at  63     Hk =   2.500
 MRCHUE: Inverse mode at  64     Hk =   2.500
 MRCHUE: Inverse mode at  65     Hk =   2.500
 MRCHUE: Inverse mode at  66     Hk =   2.500
 MRCHUE: Inverse mode at  67     Hk =   2.500
 MRCHUE: Inverse mode at  68     Hk =   2.500
 MRCHUE: Inverse mode at  69     Hk =   2.500
 MRCHUE: Inverse mode at  70     Hk =   2.500
 MRCHUE: Inverse mode at  71     Hk =   2.500
 MRCHUE: Inverse mode at  72     Hk =   2.500
 MRCHUE: Inverse mode at  73     Hk =   2.500
 MRCHUE: Inverse mode at  74     Hk =   2.500
 MRCHUE: Inverse mode at  75     Hk =   2.500
 MRCHUE: Inverse mode at  76     Hk =   2.500
 MRCHUE: Inverse mode at  77     Hk =   2.500
 MRCHUE: Inverse mode at  78     Hk =   2.500
 MRCHUE: Inverse mode at  79     Hk =   2.500
 MRCHUE: Inverse mode at  80     Hk =   2.500
 MRCHUE: Inverse mode at  81     Hk =   2.500
 MRCHUE: Inverse mode at  82     Hk =   2.500
 MRCHUE: Inverse mode at  83     Hk =   2.500
 MRCHUE: Inverse mode at  84     Hk =   2.500
 MRCHUE: Inverse mode at  85     Hk =   2.500
 MRCHUE: Inverse mode at  86     Hk =   2.500
 MRCHUE: Inverse mode at  87     Hk =   2.500
 MRCHUE: Inverse mode at  88     Hk =   2.500
 MRCHUE: Convergence failed at  89  side 2    Res =  0.4522E+01
 MRCHUE: Inverse mode at  90     Hk =   2.500
 MRCHUE: Inverse mode at  91     Hk =   2.500
 MRCHUE: Inverse mode at  92     Hk =   2.500
 MRCHUE: Inverse mode at  93     Hk =   2.500
 MRCHUE: Inverse mode at  94     Hk =   2.500
 MRCHUE: Inverse mode at  95     Hk =   2.500
 MRCHUE: Inverse mode at  96     Hk =   2.500
 MRCHUE: Inverse mode at  97     Hk =   2.500
 MRCHUE: Convergence failed at  98  side 2    Res =  0.4440E+01
 MRCHUE: Inverse mode at  99     Hk =   2.500
 MRCHUE: Inverse mode at 100     Hk =   2.500
 MRCHUE: Inverse mode at 101     Hk =   2.500
 MRCHUE: Convergence failed at 102  side 2    Res =  0.1216E+02

 MRCHDU: Convergence failed at  89  side 2    Res =  0.1439E+01
 MRCHDU: Convergence failed at  90  side 2    Res =  0.1485E+01
 MRCHDU: Convergence failed at  91  side 2    Res =  0.1534E+01
 MRCHDU: Convergence failed at  92  side 2    Res =  0.1586E+01
 MRCHDU: Convergence failed at  93  side 2    Res =  0.1639E+01
 MRCHDU: Convergence failed at  94  side 2    Res =  0.1695E+01
 MRCHDU: Convergence failed at  95  side 2    Res =  0.1752E+01
 MRCHDU: Convergence failed at  96  side 2    Res =  0.1811E+01
 MRCHDU: Convergence failed at  97  side 2    Res =  0.1873E+01
 MRCHDU: Convergence failed at  98  side 2    Res =  0.3216E+01
 MRCHDU: Convergence failed at  99  side 2    Res =  0.3190E+01
 MRCHDU: Convergence failed at 100  side 2    Res =  0.3166E+01
 MRCHDU: Convergence failed at 101  side 2    Res =  0.3146E+01
 MRCHDU: Convergence failed at 102  side 2    Res =  0.8765E+01
 Side 1 forced transition at x/c =  1.0000   60
 Side 2  free  transition at x/c =  0.0050   31

   1   rms: 0.9559E+00   max: -.8260E+01   C at   60  1   RLX: 0.061
       a =-20.000      CL = -2.5200
      Cm =  0.1387     CD =  0.01189   =>   CDf =  0.00330    CDp =  0.00859

 Side 1 forced transition at x/c =  1.0000   60
 Side 2  free  transition at x/c =  0.0051   31

   2   rms: 0.9379E+00   max: -.7888E+01   C at   60  1   RLX: 0.063
       a =-20.000      CL = -2.4764
      Cm =  0.1299     CD =  0.01322   =>   CDf =  0.00337    CDp =  0.00985

 Side 1 forced transition at x/c =  1.0000   60
 Side 2  free  transition at x/c =  0.0052   31

   3   rms: 0.1326E+01   max: -.7748E+01   C at   60  1   RLX: 0.065
       a =-20.000      CL = -2.4467
      Cm =  0.1311     CD =  0.01615   =>   CDf =  0.00321    CDp =  0.01294

 Side 1 forced transition at x/c =  1.0000   60
 Side 2  free  transition at x/c =  0.0053   31

   4   rms: 0.1417E+01   max: -.4801E+01   D at   57  2   RLX: 0.104
       a =-20.000      CL = -2.3802
      Cm =  0.0931     CD =  0.01301   =>   CDf =  0.00295    CDp =  0.01005

 Side 1 forced transition at x/c =  1.0000   60
 Side 2  free  transition at x/c =  0.0055   31

   5   rms: 0.9870E+00   max: -.6123E+01   C at   60  1   RLX: 0.082
       a =-20.000      CL = -2.3949
      Cm =  0.1055     CD =  0.01918   =>   CDf =  0.00340    CDp =  0.01577

 Side 1 forced transition at x/c =  1.0000   60
 Side 2  free  transition at x/c =  0.0055   31

   6   rms: 0.3755E+01   max: -.1239E+02   C at   60  1   RLX: 0.040
       a =-20.000      CL = -2.3841
      Cm =  0.1296     CD =  0.02571   =>   CDf =  0.00319    CDp =  0.02253

 Side 1 forced transition at x/c =  1.0000   60
 Side 2  free  transition at x/c =  0.0056   31

   7   rms: 0.1183E+01   max: -.4946E+01   D at   58  2   RLX: 0.101
       a =-20.000      CL = -2.3368
      Cm =  0.1063     CD =  0.02175   =>   CDf =  0.00286    CDp =  0.01888

 Side 1 forced transition at x/c =  1.0000   60
 Side 2  free  transition at x/c =  0.0057   31

   8   rms: 0.2803E+01   max: 0.8335E+01   D at   68  2   RLX: 0.065
       a =-20.000      CL = -2.3179
      Cm =  0.1351     CD =  0.03487   =>   CDf =  0.00326    CDp =  0.03161

 Side 1 forced transition at x/c =  1.0000   60
 Side 2  free  transition at x/c =  0.0058   31

   9   rms: 0.1765E+01   max: -.7571E+01   D at   59  2   RLX: 0.066
       a =-20.000      CL = -2.2813
      Cm =  0.1069     CD =  0.02767   =>   CDf =  0.00296    CDp =  0.02471

 Side 1 forced transition at x/c =  1.0000   60
 Side 2  free  transition at x/c =  0.0059   31

  10   rms: 0.1450E+01   max: 0.4295E+01   D at   66  2   RLX: 0.280
       a =-20.000      CL = -1.9835
      Cm =  0.1128     CD =  0.05816   =>   CDf =  0.00392    CDp =  0.05423

 Side 1 forced transition at x/c =  1.0000   61
 Side 2  free  transition at x/c =  0.0064   31

  11   rms: 0.3460E+01   max: -.1529E+02   D at   56  2   RLX: 0.033
       a =-20.000      CL = -2.0041
      Cm =  0.0841     CD =  0.04769   =>   CDf =  0.00296    CDp =  0.04473

 Side 1 forced transition at x/c =  1.0000   61
 Side 2  free  transition at x/c =  0.0063   31

  12   rms: 0.1074E+01   max: 0.3495E+01   D at   61  2   RLX: 0.334
       a =-20.000      CL = -1.6806
      Cm =  0.0708     CD =  0.08484   =>   CDf =  0.00382    CDp =  0.08102

 Side 1 forced transition at x/c =  1.0000   62
 Side 2  free  transition at x/c =  0.0078   30

  13   rms: 0.1201E+02   max: -.5708E+02   D at   55  2   RLX: 0.009
       a =-20.000      CL = -1.7008
      Cm =  0.0456     CD =  0.06571   =>   CDf =  0.00284    CDp =  0.06287

 Side 1 forced transition at x/c =  1.0000   62
 Side 2  free  transition at x/c =  0.0077   30

  14   rms: 0.1086E+01   max: 0.4452E+01   D at   57  2   RLX: 0.330
       a =-20.000      CL = -1.4213
      Cm =  0.0442     CD =  0.11100   =>   CDf =  0.00358    CDp =  0.10743

 Side 1 forced transition at x/c =  1.0000   63
 Side 2  free  transition at x/c =  0.0087   30

  15   rms: 0.3895E+02   max: -.1997E+03   D at   50  2   RLX: 0.003
       a =-20.000      CL = -1.4360
      Cm =  0.0177     CD =  0.08541   =>   CDf =  0.00274    CDp =  0.08267

 Side 1 forced transition at x/c =  1.0000   63
 Side 2  free  transition at x/c =  0.0085   30

  16   rms: 0.1033E+01   max: 0.5451E+01   D at   54  2   RLX: 0.275
       a =-20.000      CL = -1.2617
      Cm =  0.0290     CD =  0.12901   =>   CDf =  0.00339    CDp =  0.12562

 Side 1 forced transition at x/c =  1.0000   64
 Side 2  free  transition at x/c =  0.0095   29

  17   rms: 0.2834E+01   max: 0.1593E+02   D at   49  2   RLX: 0.039
       a =-20.000      CL = -1.1785
      Cm =  0.0097     CD =  0.12491   =>   CDf =  0.00264    CDp =  0.12227

 Side 1 forced transition at x/c =  1.0000   64
 Side 2  free  transition at x/c =  0.0097   29

  18   rms: 0.1400E+02   max: 0.6766E+02   D at   43  2   RLX: 0.022
       a =-20.000      CL = -1.0550
      Cm =  0.0276     CD =  0.16305   =>   CDf =  0.00282    CDp =  0.16024

 MRCHDU: Convergence failed at  39  side 2    Res =  0.1356E+01
 Side 1 forced transition at x/c =  1.0000   65
 Side 2  free  transition at x/c =  0.0102   28

  19   rms: 0.2062E+00   max: 0.1145E+01   D at   39  2   RLX: 0.632
       a =-20.000      CL = -0.9597
      Cm =  0.0168     CD =  0.16666   =>   CDf =  0.00226    CDp =  0.16440

 Side 1 forced transition at x/c =  1.0000   65
 Side 2  free  transition at x/c =  0.0104   28

  20   rms: 0.1120E+01   max: 0.7466E+01   D at   39  2   RLX: 0.201
       a =-20.000      CL = -0.8815
      Cm =  0.0253     CD =  0.18743   =>   CDf =  0.00220    CDp =  0.18523

 MRCHDU: Convergence failed at  36  side 2    Res =  0.1631E+01
 Side 1 forced transition at x/c =  1.0000   65
 Side 2  free  transition at x/c =  0.0104   28

  21   rms: 0.7390E-01   max: 0.8842E+00   D at   37  2
       a =-20.000      CL = -0.8649
      Cm =  0.0184     CD =  0.18587   =>   CDf =  0.00205    CDp =  0.18383

 Side 1 forced transition at x/c =  1.0000   65
 Side 2  free  transition at x/c =  0.0103   28

  22   rms: 0.2123E+00   max: 0.1395E+01   D at   36  2
       a =-20.000      CL = -0.8097
      Cm =  0.0282     CD =  0.20828   =>   CDf =  0.00223    CDp =  0.20605

 MRCHDU: Convergence failed at  33  side 2    Res =  0.2558E+01
 MRCHDU: Convergence failed at  34  side 2    Res =  0.7412E+00
 Side 1 forced transition at x/c =  1.0000   66
 Side 2  free  transition at x/c =  0.0101   27

  23   rms: 0.1195E+00   max: 0.6249E+00   D at   34  2
       a =-20.000      CL = -0.8338
      Cm =  0.0203     CD =  0.17942   =>   CDf =  0.00193    CDp =  0.17749

 Side 1 forced transition at x/c =  1.0000   66
 Side 2  free  transition at x/c =  0.0104   27

  24   rms: 0.3011E+00   max: 0.1982E+01   D at   34  2   RLX: 0.757
       a =-20.000      CL = -0.7936
      Cm =  0.0338     CD =  0.21442   =>   CDf =  0.00199    CDp =  0.21243

 MRCHDU: Convergence failed at  32  side 2    Res =  0.1317E+01
 MRCHDU: Convergence failed at  33  side 2    Res =  0.1319E+02
 Side 1 forced transition at x/c =  1.0000   66
 Side 2  free  transition at x/c =  0.0098   27

  25   rms: 0.1409E+00   max: -.6219E+00   D at   30  2   RLX: 0.804
       a =-20.000      CL = -0.8301
      Cm =  0.0291     CD =  0.18492   =>   CDf =  0.00189    CDp =  0.18303

 Side 1 forced transition at x/c =  1.0000   66
 Side 2  free  transition at x/c =  0.0102   27

  26   rms: 0.3832E+00   max: -.2267E+01   D at   32  2   RLX: 0.221
       a =-20.000      CL = -0.8396
      Cm =  0.0228     CD =  0.18123   =>   CDf =  0.00193    CDp =  0.17930

 Side 1 forced transition at x/c =  1.0000   66
 Side 2  free  transition at x/c =  0.0107   28

  27   rms: 0.1369E+00   max: 0.9337E+00   D at   34  2
       a =-20.000      CL = -0.8032
      Cm =  0.0279     CD =  0.20034   =>   CDf =  0.00197    CDp =  0.19837

 Side 1 forced transition at x/c =  1.0000   66
 Side 2  free  transition at x/c =  0.0100   27

  28   rms: 0.2434E+00   max: -.1368E+01   D at   31  2   RLX: 0.365
       a =-20.000      CL = -0.8266
      Cm =  0.0236     CD =  0.18156   =>   CDf =  0.00191    CDp =  0.17965

 Side 1 forced transition at x/c =  1.0000   66
 Side 2  free  transition at x/c =  0.0106   28

  29   rms: 0.3145E-01   max: -.2370E+00   D at   31  2
       a =-20.000      CL = -0.8260
      Cm =  0.0223     CD =  0.18426   =>   CDf =  0.00195    CDp =  0.18231

 Side 1 forced transition at x/c =  1.0000   66
 Side 2  free  transition at x/c =  0.0102   27

  30   rms: 0.9867E+00   max: 0.6131E+01   D at   33  2   RLX: 0.245
       a =-20.000      CL = -0.8024
      Cm =  0.0405     CD =  0.22065   =>   CDf =  0.00196    CDp =  0.21870

 MRCHDU: Convergence failed at  31  side 2    Res =  0.5732E+01
 MRCHDU: Convergence failed at  32  side 2    Res =  0.1449E+01
 Side 1 forced transition at x/c =  1.0000   66
 Side 2  free  transition at x/c =  0.0095   27

  31   rms: 0.1140E+00   max: 0.9272E+00   D at   32  2
       a =-20.000      CL = -0.7880
      Cm =  0.0273     CD =  0.19242   =>   CDf =  0.00187    CDp =  0.19054

 Side 1 forced transition at x/c =  1.0000   66
 Side 2  free  transition at x/c =  0.0096   27

  32   rms: 0.2837E+00   max: -.1730E+01   D at   31  2   RLX: 0.289
       a =-20.000      CL = -0.8298
      Cm =  0.0295     CD =  0.18784   =>   CDf =  0.00188    CDp =  0.18596

 Side 1 forced transition at x/c =  1.0000   66
 Side 2  free  transition at x/c =  0.0102   27

  33   rms: 0.1545E+00   max: -.8460E+00   D at   32  2   RLX: 0.591
       a =-20.000      CL = -0.8428
      Cm =  0.0230     CD =  0.17999   =>   CDf =  0.00193    CDp =  0.17806

 Side 1 forced transition at x/c =  1.0000   66
 Side 2  free  transition at x/c =  0.0106   28

  34   rms: 0.6669E-01   max: 0.4827E+00   D at   34  2
       a =-20.000      CL = -0.8215
      Cm =  0.0237     CD =  0.18838   =>   CDf =  0.00198    CDp =  0.18640

 Side 1 forced transition at x/c =  1.0000   66
 Side 2  free  transition at x/c =  0.0101   27

  35   rms: 0.5312E+00   max: -.3246E+01   D at   33  2   RLX: 0.154
       a =-20.000      CL = -0.8612
      Cm =  0.0250     CD =  0.17709   =>   CDf =  0.00194    CDp =  0.17515

 Side 1 forced transition at x/c =  1.0000   66
 Side 2  free  transition at x/c =  0.0106   28

  36   rms: 0.5860E-01   max: 0.5029E+00   D at   34  2
       a =-20.000      CL = -0.8303
      Cm =  0.0226     CD =  0.18701   =>   CDf =  0.00199    CDp =  0.18501

 Side 1 forced transition at x/c =  1.0000   66
 Side 2  free  transition at x/c =  0.0102   27
 idif Ue xi dudx           1  0.10566419      7.72684813E-03   13.674940    
 Uenew xinew           2  4.81310626E-03  3.51965427E-04

  37   rms: 0.2993E+00   max: -.1785E+01   D at   33  2   RLX: 0.280
       a =-20.000      CL = -0.8640
      Cm =  0.0218     CD =  0.17463   =>   CDf =  0.00180    CDp =  0.17283

 Side 1 forced transition at x/c =  1.0000   65
 Side 2  free  transition at x/c =  0.0106   29

  38   rms: 0.2559E+00   max: 0.1549E+01   D at   35  2   RLX: 0.351
       a =-20.000      CL = -0.8610
      Cm =  0.0298     CD =  0.19151   =>   CDf =  0.00219    CDp =  0.18932

 Side 1 forced transition at x/c =  1.0000   66
 Side 2  free  transition at x/c =  0.0103   27

  39   rms: 0.4029E+00   max: 0.2795E+01   D at   34  2   RLX: 0.537
       a =-20.000      CL = -0.7929
      Cm =  0.0343     CD =  0.21505   =>   CDf =  0.00197    CDp =  0.21308

 MRCHDU: Convergence failed at  32  side 2    Res =  0.1946E+01
 Side 1 forced transition at x/c =  1.0000   66
 Side 2  free  transition at x/c =  0.0097   27

  40   rms: 0.3651E+00   max: 0.3567E+01   D at   33  2   RLX: 0.421
       a =-20.000      CL = -0.7872
      Cm =  0.0394     CD =  0.21428   =>   CDf =  0.00199    CDp =  0.21229

 Side 1 forced transition at x/c =  1.0000   67
 Side 2  free  transition at x/c =  0.0085   26

  41   rms: 0.3305E-01   max: 0.1345E+00   D at   32  2
       a =-20.000      CL = -0.7632
      Cm =  0.0335     CD =  0.21365   =>   CDf =  0.00185    CDp =  0.21180

 Side 1 forced transition at x/c =  1.0000   67
 Side 2  free  transition at x/c =  0.0083   26

  42   rms: 0.5260E-02   max: 0.2957E-01   D at  115  2
       a =-20.000      CL = -0.7608
      Cm =  0.0331     CD =  0.20849   =>   CDf =  0.00185    CDp =  0.20664

 Side 1 forced transition at x/c =  1.0000   67
 Side 2  free  transition at x/c =  0.0083   26

  43   rms: 0.4786E-03   max: 0.7833E-02   D at  114  2
       a =-20.000      CL = -0.7607
      Cm =  0.0330     CD =  0.20774   =>   CDf =  0.00186    CDp =  0.20589

 Side 1 forced transition at x/c =  1.0000   67
 Side 2  free  transition at x/c =  0.0083   26

  44   rms: 0.4429E-04   max: -.2891E-03   D at  116  2
       a =-20.000      CL = -0.7608
      Cm =  0.0330     CD =  0.20778   =>   CDf =  0.00186    CDp =  0.20592
 plradd ia,ip,cpol            1          66  5.63274720E-04

 Point added to stored polar  1
 Save file unspecified or not available
 Dump file unspecified or not available

.OPERva   c>  
.OPERva   c>  
.OPERva   c>   Calculating wake trajectory ...
 Calculating source influence matrix ...

 Solving BL system ...

 Side 1 forced transition at x/c =  1.0000   67
 Side 2  free  transition at x/c =  0.0083   26

   1   rms: 0.3652E-01   max: -.1021E+00   T at   26  2   RLX: 0.378
       a =-19.500      CL = -0.7547
      Cm =  0.0315     CD =  0.20464   =>   CDf =  0.00186    CDp =  0.20279

 Side 1 forced transition at x/c =  1.0000   67
 Side 2  free  transition at x/c =  0.0084   26

   2   rms: 0.2118E-01   max: -.6980E-01   T at   26  2
       a =-19.500      CL = -0.7427
      Cm =  0.0291     CD =  0.20018   =>   CDf =  0.00185    CDp =  0.19833

 Side 1 forced transition at x/c =  1.0000   67
 Side 2  free  transition at x/c =  0.0086   26

   3   rms: 0.6981E-02   max: -.3757E-01   D at   29  2
       a =-19.500      CL = -0.7450
      Cm =  0.0291     CD =  0.20138   =>   CDf =  0.00185    CDp =  0.19953

 Side 1 forced transition at x/c =  1.0000   67
 Side 2  free  transition at x/c =  0.0086   26

   4   rms: 0.1133E-02   max: -.4378E-02   D at   29  2
       a =-19.500      CL = -0.7455
      Cm =  0.0291     CD =  0.20176   =>   CDf =  0.00185    CDp =  0.19991

 Side 1 forced transition at x/c =  1.0000   67
 Side 2  free  transition at x/c =  0.0086   26

   5   rms: 0.1254E-03   max: -.6305E-03   D at  113  2
       a =-19.500      CL = -0.7456
      Cm =  0.0291     CD =  0.20186   =>   CDf =  0.00185    CDp =  0.20001

 Side 1 forced transition at x/c =  1.0000   67
 Side 2  free  transition at x/c =  0.0086   26

   6   rms: 0.9955E-05   max: -.6375E-04   D at  113  2
       a =-19.500      CL = -0.7456
      Cm =  0.0291     CD =  0.20187   =>   CDf =  0.00185    CDp =  0.20002
 plradd ia,ip,cpol            2          66  5.63274720E-04

 Point added to stored polar  1
 Save file unspecified or not available
 Dump file unspecified or not available

.OPERva   c>  
.OPERva   c>  
.OPERva   c>   Calculating wake trajectory ...
 Calculating source influence matrix ...

 Solving BL system ...

 Side 1 forced transition at x/c =  1.0000   67
 Side 2  free  transition at x/c =  0.0086   26

   1   rms: 0.3173E-01   max: -.1961E+00   T at   26  2   RLX: 0.392
       a =-19.000      CL = -0.7404
      Cm =  0.0273     CD =  0.19761   =>   CDf =  0.00185    CDp =  0.19576

 Side 1 forced transition at x/c =  1.0000   67
 Side 2  free  transition at x/c =  0.0088   26

   2   rms: 0.2731E-01   max: -.1461E+00   D at   29  2
       a =-19.000      CL = -0.7333
      Cm =  0.0240     CD =  0.19042   =>   CDf =  0.00185    CDp =  0.18857

 Side 1 forced transition at x/c =  1.0000   67
 Side 2  free  transition at x/c =  0.0093   26

   3   rms: 0.2007E+00   max: 0.1204E+01   D at   29  2   RLX: 0.975
       a =-19.000      CL = -0.7055
      Cm =  0.0312     CD =  0.21803   =>   CDf =  0.00196    CDp =  0.21607

 Side 1 forced transition at x/c =  1.0000   68
 Side 2  free  transition at x/c =  0.0080   24

   4   rms: 0.7622E-01   max: 0.4399E+00   T at   24  2
       a =-19.000      CL = -0.7042
      Cm =  0.0302     CD =  0.21453   =>   CDf =  0.00186    CDp =  0.21267

 Side 1 forced transition at x/c =  1.0000   68
 Side 2  free  transition at x/c =  0.0073   24
 idif Ue xi dudx           1  0.11304981      6.60282373E-03   17.121433    
 Uenew xinew           2  1.74977835E-02  1.02198124E-03

   5   rms: 0.1151E+00   max: -.6260E+00   D at   27  2   RLX: 0.796
       a =-19.000      CL = -0.7102
      Cm =  0.0274     CD =  0.19661   =>   CDf =  0.00176    CDp =  0.19485

 Side 1 forced transition at x/c =  1.0000   67
 Side 2  free  transition at x/c =  0.0090   26

   6   rms: 0.1024E+00   max: -.6595E-01   D at  115  2
       a =-19.000      CL = -0.7353
      Cm =  0.0240     CD =  0.19152   =>   CDf =  0.00186    CDp =  0.18966

 Side 1 forced transition at x/c =  1.0000   67
 Side 2  free  transition at x/c =  0.0095   26

   7   rms: 0.1286E+00   max: 0.7804E+00   D at   28  2
       a =-19.000      CL = -0.7170
      Cm =  0.0288     CD =  0.20941   =>   CDf =  0.00185    CDp =  0.20755

 Side 1 forced transition at x/c =  1.0000   67
 Side 2  free  transition at x/c =  0.0084   26

   8   rms: 0.6895E-01   max: -.2827E+00   D at   30  2
       a =-19.000      CL = -0.7243
      Cm =  0.0261     CD =  0.19812   =>   CDf =  0.00185    CDp =  0.19628

 Side 1 forced transition at x/c =  1.0000   67
 Side 2  free  transition at x/c =  0.0088   26

   9   rms: 0.4048E-01   max: -.2255E+00   D at   28  2
       a =-19.000      CL = -0.7313
      Cm =  0.0246     CD =  0.19241   =>   CDf =  0.00185    CDp =  0.19056

 Side 1 forced transition at x/c =  1.0000   67
 Side 2  free  transition at x/c =  0.0093   26

  10   rms: 0.2394E+01   max: -.1404E+02   D at   29  2   RLX: 0.036
       a =-19.000      CL = -0.7363
      Cm =  0.0191     CD =  0.18579   =>   CDf =  0.00185    CDp =  0.18394

 Side 1 forced transition at x/c =  1.0000   67
 Side 2  free  transition at x/c =  0.0104   26

  11   rms: 0.5227E-01   max: 0.3319E+00   D at   29  2
       a =-19.000      CL = -0.7451
      Cm =  0.0236     CD =  0.19337   =>   CDf =  0.00189    CDp =  0.19148

 Side 1 forced transition at x/c =  1.0000   67
 Side 2  free  transition at x/c =  0.0098   26

  12   rms: 0.4858E-01   max: 0.3423E+00   D at   29  2
       a =-19.000      CL = -0.7358
      Cm =  0.0251     CD =  0.19808   =>   CDf =  0.00186    CDp =  0.19622

 Side 1 forced transition at x/c =  1.0000   67
 Side 2  free  transition at x/c =  0.0092   26

  13   rms: 0.1013E+00   max: -.5793E+00   D at   29  2   RLX: 0.863
       a =-19.000      CL = -0.7475
      Cm =  0.0213     CD =  0.18465   =>   CDf =  0.00185    CDp =  0.18280

 Side 1 forced transition at x/c =  1.0000   67
 Side 2  free  transition at x/c =  0.0104   26

  14   rms: 0.5563E-01   max: 0.3821E+00   D at   29  2
       a =-19.000      CL = -0.7450
      Cm =  0.0238     CD =  0.19437   =>   CDf =  0.00189    CDp =  0.19249

 Side 1 forced transition at x/c =  1.0000   67
 Side 2  free  transition at x/c =  0.0098   26

  15   rms: 0.5146E-01   max: 0.3730E+00   D at   29  2
       a =-19.000      CL = -0.7348
      Cm =  0.0253     CD =  0.19866   =>   CDf =  0.00186    CDp =  0.19680

 Side 1 forced transition at x/c =  1.0000   67
 Side 2  free  transition at x/c =  0.0092   26

  16   rms: 0.8830E-01   max: -.4933E+00   D at   29  2
       a =-19.000      CL = -0.7479
      Cm =  0.0218     CD =  0.18530   =>   CDf =  0.00185    CDp =  0.18346

 Side 1 forced transition at x/c =  1.0000   67
 Side 2  free  transition at x/c =  0.0104   26

  17   rms: 0.5266E-01   max: 0.3656E+00   D at   29  2
       a =-19.000      CL = -0.7447
      Cm =  0.0238     CD =  0.19417   =>   CDf =  0.00188    CDp =  0.19229

 Side 1 forced transition at x/c =  1.0000   67
 Side 2  free  transition at x/c =  0.0098   26

  18   rms: 0.5365E-01   max: 0.3838E+00   D at   29  2
       a =-19.000      CL = -0.7340
      Cm =  0.0254     CD =  0.19896   =>   CDf =  0.00186    CDp =  0.19710

 Side 1 forced transition at x/c =  1.0000   67
 Side 2  free  transition at x/c =  0.0091   26

  19   rms: 0.8118E-01   max: -.4470E+00   D at   28  2
       a =-19.000      CL = -0.7459
      Cm =  0.0221     CD =  0.18641   =>   CDf =  0.00185    CDp =  0.18456

 Side 1 forced transition at x/c =  1.0000   67
 Side 2  free  transition at x/c =  0.0102   26

  20   rms: 0.4072E-01   max: 0.3116E+00   D at   29  2
       a =-19.000      CL = -0.7443
      Cm =  0.0237     CD =  0.19345   =>   CDf =  0.00188    CDp =  0.19158

 Side 1 forced transition at x/c =  1.0000   67
 Side 2  free  transition at x/c =  0.0097   26

  21   rms: 0.6472E-01   max: 0.4423E+00   D at   29  2
       a =-19.000      CL = -0.7318
      Cm =  0.0258     CD =  0.20035   =>   CDf =  0.00186    CDp =  0.19849

 Side 1 forced transition at x/c =  1.0000   67
 Side 2  free  transition at x/c =  0.0090   26

  22   rms: 0.5905E-01   max: -.3037E+00   D at   28  2
       a =-19.000      CL = -0.7398
      Cm =  0.0234     CD =  0.19015   =>   CDf =  0.00185    CDp =  0.18830

 Side 1 forced transition at x/c =  1.0000   67
 Side 2  free  transition at x/c =  0.0098   26

  23   rms: 0.4085E-01   max: 0.3217E+00   D at   29  2
       a =-19.000      CL = -0.7361
      Cm =  0.0249     CD =  0.19646   =>   CDf =  0.00186    CDp =  0.19460

 Side 1 forced transition at x/c =  1.0000   67
 Side 2  free  transition at x/c =  0.0092   26

  24   rms: 0.1037E+00   max: -.5941E+00   D at   29  2   RLX: 0.842
       a =-19.000      CL = -0.7480
      Cm =  0.0212     CD =  0.18443   =>   CDf =  0.00185    CDp =  0.18258

 Side 1 forced transition at x/c =  1.0000   67
 Side 2  free  transition at x/c =  0.0104   26

  25   rms: 0.5822E-01   max: 0.3961E+00   D at   29  2
       a =-19.000      CL = -0.7452
      Cm =  0.0238     CD =  0.19453   =>   CDf =  0.00189    CDp =  0.19264

 Side 1 forced transition at x/c =  1.0000   67
 Side 2  free  transition at x/c =  0.0098   26

  26   rms: 0.5013E-01   max: 0.3675E+00   D at   29  2
       a =-19.000      CL = -0.7352
      Cm =  0.0252     CD =  0.19849   =>   CDf =  0.00186    CDp =  0.19664

 Side 1 forced transition at x/c =  1.0000   67
 Side 2  free  transition at x/c =  0.0092   26

  27   rms: 0.8932E-01   max: -.5012E+00   D at   29  2   RLX: 0.998
       a =-19.000      CL = -0.7484
      Cm =  0.0216     CD =  0.18502   =>   CDf =  0.00185    CDp =  0.18317

 Side 1 forced transition at x/c =  1.0000   67
 Side 2  free  transition at x/c =  0.0104   26

  28   rms: 0.5474E-01   max: 0.3736E+00   D at   29  2
       a =-19.000      CL = -0.7450
      Cm =  0.0237     CD =  0.19423   =>   CDf =  0.00189    CDp =  0.19234

 Side 1 forced transition at x/c =  1.0000   67
 Side 2  free  transition at x/c =  0.0098   26

  29   rms: 0.5144E-01   max: 0.3714E+00   D at   29  2
       a =-19.000      CL = -0.7348
      Cm =  0.0253     CD =  0.19863   =>   CDf =  0.00186    CDp =  0.19677

 Side 1 forced transition at x/c =  1.0000   67
 Side 2  free  transition at x/c =  0.0092   26

  30   rms: 0.8904E-01   max: -.4980E+00   D at   29  2
       a =-19.000      CL = -0.7480
      Cm =  0.0217     CD =  0.18519   =>   CDf =  0.00185    CDp =  0.18334

 Side 1 forced transition at x/c =  1.0000   67
 Side 2  free  transition at x/c =  0.0104   26

  31   rms: 0.5316E-01   max: 0.3659E+00   D at   29  2
       a =-19.000      CL = -0.7449
      Cm =  0.0237     CD =  0.19416   =>   CDf =  0.00188    CDp =  0.19227

 Side 1 forced transition at x/c =  1.0000   67
 Side 2  free  transition at x/c =  0.0098   26

  32   rms: 0.5284E-01   max: 0.3784E+00   D at   29  2
       a =-19.000      CL = -0.7342
      Cm =  0.0253     CD =  0.19880   =>   CDf =  0.00186    CDp =  0.19694

 Side 1 forced transition at x/c =  1.0000   67
 Side 2  free  transition at x/c =  0.0092   26

  33   rms: 0.8533E-01   max: -.4730E+00   D at   29  2
       a =-19.000      CL = -0.7469
      Cm =  0.0219     CD =  0.18579   =>   CDf =  0.00185    CDp =  0.18394

 Side 1 forced transition at x/c =  1.0000   67
 Side 2  free  transition at x/c =  0.0103   26

  34   rms: 0.4435E-01   max: 0.3232E+00   D at   29  2
       a =-19.000      CL = -0.7451
      Cm =  0.0236     CD =  0.19345   =>   CDf =  0.00188    CDp =  0.19157

 Side 1 forced transition at x/c =  1.0000   67
 Side 2  free  transition at x/c =  0.0097   26

  35   rms: 0.5967E-01   max: 0.4123E+00   D at   29  2
       a =-19.000      CL = -0.7333
      Cm =  0.0255     CD =  0.19950   =>   CDf =  0.00186    CDp =  0.19765

 Side 1 forced transition at x/c =  1.0000   67
 Side 2  free  transition at x/c =  0.0091   26

  36   rms: 0.7101E-01   max: -.3816E+00   D at   28  2
       a =-19.000      CL = -0.7434
      Cm =  0.0226     CD =  0.18801   =>   CDf =  0.00185    CDp =  0.18616

 Side 1 forced transition at x/c =  1.0000   67
 Side 2  free  transition at x/c =  0.0100   26

  37   rms: 0.3907E-01   max: 0.3204E+00   D at   29  2
       a =-19.000      CL = -0.7409
      Cm =  0.0241     CD =  0.19446   =>   CDf =  0.00187    CDp =  0.19259

 Side 1 forced transition at x/c =  1.0000   67
 Side 2  free  transition at x/c =  0.0095   26

  38   rms: 0.1125E+00   max: 0.7415E+00   D at   29  2
       a =-19.000      CL = -0.7209
      Cm =  0.0279     CD =  0.20730   =>   CDf =  0.00185    CDp =  0.20544

 Side 1 forced transition at x/c =  1.0000   67
 Side 2  free  transition at x/c =  0.0085   26

  39   rms: 0.5747E-01   max: -.2490E+00   D at   30  2
       a =-19.000      CL = -0.7273
      Cm =  0.0256     CD =  0.19677   =>   CDf =  0.00185    CDp =  0.19493

 Side 1 forced transition at x/c =  1.0000   67
 Side 2  free  transition at x/c =  0.0090   26

  40   rms: 0.4604E-01   max: -.2523E+00   D at   29  2
       a =-19.000      CL = -0.7356
      Cm =  0.0239     CD =  0.19077   =>   CDf =  0.00185    CDp =  0.18892

 Side 1 forced transition at x/c =  1.0000   67
 Side 2  free  transition at x/c =  0.0095   26

  41   rms: 0.7477E-01   max: 0.4790E+00   D at   29  2
       a =-19.000      CL = -0.7260
      Cm =  0.0268     CD =  0.20205   =>   CDf =  0.00186    CDp =  0.20020

 Side 1 forced transition at x/c =  1.0000   67
 Side 2  free  transition at x/c =  0.0087   26

  42   rms: 0.4261E-01   max: -.2062E+00   D at   30  2
       a =-19.000      CL = -0.7306
      Cm =  0.0250     CD =  0.19507   =>   CDf =  0.00185    CDp =  0.19322

 Side 1 forced transition at x/c =  1.0000   67
 Side 2  free  transition at x/c =  0.0091   26

  43   rms: 0.9219E-01   max: -.5307E+00   D at   29  2   RLX: 0.942
       a =-19.000      CL = -0.7454
      Cm =  0.0218     CD =  0.18502   =>   CDf =  0.00185    CDp =  0.18317

 Side 1 forced transition at x/c =  1.0000   67
 Side 2  free  transition at x/c =  0.0103   26

  44   rms: 0.4206E-01   max: 0.3110E+00   D at   29  2
       a =-19.000      CL = -0.7450
      Cm =  0.0235     CD =  0.19307   =>   CDf =  0.00188    CDp =  0.19119

 Side 1 forced transition at x/c =  1.0000   67
 Side 2  free  transition at x/c =  0.0098   26

  45   rms: 0.5734E-01   max: 0.3934E+00   D at   29  2
       a =-19.000      CL = -0.7339
      Cm =  0.0255     CD =  0.19914   =>   CDf =  0.00186    CDp =  0.19729

 Side 1 forced transition at x/c =  1.0000   67
 Side 2  free  transition at x/c =  0.0091   26

  46   rms: 0.7899E-01   max: -.4299E+00   D at   28  2
       a =-19.000      CL = -0.7453
      Cm =  0.0223     CD =  0.18678   =>   CDf =  0.00185    CDp =  0.18493

 Side 1 forced transition at x/c =  1.0000   67
 Side 2  free  transition at x/c =  0.0102   26

  47   rms: 0.3993E-01   max: 0.3126E+00   D at   29  2
       a =-19.000      CL = -0.7436
      Cm =  0.0238     CD =  0.19365   =>   CDf =  0.00188    CDp =  0.19177

 Side 1 forced transition at x/c =  1.0000   67
 Side 2  free  transition at x/c =  0.0097   26

  48   rms: 0.6934E-01   max: 0.4721E+00   D at   29  2
       a =-19.000      CL = -0.7305
      Cm =  0.0261     CD =  0.20113   =>   CDf =  0.00186    CDp =  0.19928

 Side 1 forced transition at x/c =  1.0000   67
 Side 2  free  transition at x/c =  0.0090   26

  49   rms: 0.4885E-01   max: -.2423E+00   D at   30  2
       a =-19.000      CL = -0.7366
      Cm =  0.0240     CD =  0.19211   =>   CDf =  0.00185    CDp =  0.19026

 Side 1 forced transition at x/c =  1.0000   67
 Side 2  free  transition at x/c =  0.0095   26

  50   rms: 0.6850E-01   max: 0.4520E+00   D at   29  2
       a =-19.000      CL = -0.7272
      Cm =  0.0265     CD =  0.20126   =>   CDf =  0.00186    CDp =  0.19941

 Side 1 forced transition at x/c =  1.0000   67
 Side 2  free  transition at x/c =  0.0088   26

  51   rms: 0.4083E-01   max: -.2019E+00   D at   30  2
       a =-19.000      CL = -0.7319
      Cm =  0.0248     CD =  0.19451   =>   CDf =  0.00185    CDp =  0.19267

 Side 1 forced transition at x/c =  1.0000   67
 Side 2  free  transition at x/c =  0.0092   26

  52   rms: 0.2601E+00   max: -.1522E+01   D at   29  2   RLX: 0.328
       a =-19.000      CL = -0.7415
      Cm =  0.0205     CD =  0.18508   =>   CDf =  0.00185    CDp =  0.18323

 Side 1 forced transition at x/c =  1.0000   67
 Side 2  free  transition at x/c =  0.0104   26

  53   rms: 0.4969E-01   max: 0.3337E+00   D at   29  2
       a =-19.000      CL = -0.7448
      Cm =  0.0236     CD =  0.19350   =>   CDf =  0.00189    CDp =  0.19161

 Side 1 forced transition at x/c =  1.0000   67
 Side 2  free  transition at x/c =  0.0098   26

  54   rms: 0.5160E-01   max: 0.3632E+00   D at   29  2
       a =-19.000      CL = -0.7348
      Cm =  0.0253     CD =  0.19857   =>   CDf =  0.00186    CDp =  0.19671

 Side 1 forced transition at x/c =  1.0000   67
 Side 2  free  transition at x/c =  0.0092   26

  55   rms: 0.9271E-01   max: -.5220E+00   D at   29  2   RLX: 0.958
       a =-19.000      CL = -0.7475
      Cm =  0.0216     CD =  0.18514   =>   CDf =  0.00185    CDp =  0.18329

 Side 1 forced transition at x/c =  1.0000   67
 Side 2  free  transition at x/c =  0.0104   26

  56   rms: 0.5267E-01   max: 0.3635E+00   D at   29  2
       a =-19.000      CL = -0.7448
      Cm =  0.0237     CD =  0.19414   =>   CDf =  0.00188    CDp =  0.19226

 Side 1 forced transition at x/c =  1.0000   67
 Side 2  free  transition at x/c =  0.0098   26

  57   rms: 0.5321E-01   max: 0.3804E+00   D at   29  2
       a =-19.000      CL = -0.7341
      Cm =  0.0254     CD =  0.19882   =>   CDf =  0.00186    CDp =  0.19697

 Side 1 forced transition at x/c =  1.0000   67
 Side 2  free  transition at x/c =  0.0091   26

  58   rms: 0.8398E-01   max: -.4642E+00   D at   29  2
       a =-19.000      CL = -0.7466
      Cm =  0.0220     CD =  0.18600   =>   CDf =  0.00185    CDp =  0.18415

 Side 1 forced transition at x/c =  1.0000   67
 Side 2  free  transition at x/c =  0.0103   26

  59   rms: 0.4306E-01   max: 0.3196E+00   D at   29  2
       a =-19.000      CL = -0.7448
      Cm =  0.0236     CD =  0.19345   =>   CDf =  0.00188    CDp =  0.19157

 Side 1 forced transition at x/c =  1.0000   67
 Side 2  free  transition at x/c =  0.0097   26

  60   rms: 0.6161E-01   max: 0.4243E+00   D at   29  2
       a =-19.000      CL = -0.7326
      Cm =  0.0256     CD =  0.19977   =>   CDf =  0.00186    CDp =  0.19791

 Side 1 forced transition at x/c =  1.0000   67
 Side 2  free  transition at x/c =  0.0091   26

  61   rms: 0.6515E-01   max: -.3446E+00   D at   28  2
       a =-19.000      CL = -0.7418
      Cm =  0.0230     CD =  0.18897   =>   CDf =  0.00185    CDp =  0.18713

 Side 1 forced transition at x/c =  1.0000   67
 Side 2  free  transition at x/c =  0.0099   26

  62   rms: 0.3897E-01   max: 0.3205E+00   D at   29  2
       a =-19.000      CL = -0.7389
      Cm =  0.0244     CD =  0.19522   =>   CDf =  0.00187    CDp =  0.19335

 Side 1 forced transition at x/c =  1.0000   67
 Side 2  free  transition at x/c =  0.0094   26

  63   rms: 0.4811E+00   max: 0.3005E+01   D at   29  2   RLX: 0.417
       a =-19.000      CL = -0.7005
      Cm =  0.0301     CD =  0.21864   =>   CDf =  0.00196    CDp =  0.21669

 Side 1 forced transition at x/c =  1.0000   68
 Side 2  free  transition at x/c =  0.0081   24

  64   rms: 0.7836E-01   max: 0.4180E+00   T at   24  2
       a =-19.000      CL = -0.7056
      Cm =  0.0300     CD =  0.21410   =>   CDf =  0.00186    CDp =  0.21224

 Side 1 forced transition at x/c =  1.0000   68
 Side 2  free  transition at x/c =  0.0074   24
 idif Ue xi dudx           1  0.11699916      6.85262680E-03   17.073622    
 Uenew xinew           2  2.17139646E-02  1.27178431E-03

  65   rms: 0.2283E+00   max: -.1231E+01   D at   26  2   RLX: 0.397
       a =-19.000      CL = -0.7151
      Cm =  0.0282     CD =  0.19479   =>   CDf =  0.00176    CDp =  0.19304

 MRCHDU: Convergence failed at  26  side 2    Res =  0.3770E+01
 MRCHDU: Convergence failed at  27  side 2    Res =  0.3700E+01
 MRCHDU: Convergence failed at  28  side 2    Res =  0.3140E+02
 MRCHDU: Convergence failed at  29  side 2    Res =  0.8544E+01
 MRCHDU: Convergence failed at  30  side 2    Res =  0.1784E+02
 MRCHDU: Convergence failed at  31  side 2    Res =  0.9715E+01
 MRCHDU: Convergence failed at  32  side 2    Res =  0.3285E+02
 MRCHDU: Convergence failed at  33  side 2    Res =  0.8887E+01
 MRCHDU: Convergence failed at  34  side 2    Res =  0.7997E+01
 MRCHDU: Convergence failed at  35  side 2    Res =  0.8934E+01
 MRCHDU: Convergence failed at  36  side 2    Res =  0.2106E+02
 MRCHDU: Convergence failed at  37  side 2    Res =  0.2195E+02
 MRCHDU: Convergence failed at  38  side 2    Res =  0.6937E+01
 MRCHDU: Convergence failed at  39  side 2    Res =  0.4459E+01
 MRCHDU: Convergence failed at  40  side 2    Res =  0.8203E+01
 MRCHDU: Convergence failed at  41  side 2    Res =  0.1009E+02
 MRCHDU: Convergence failed at  42  side 2    Res =  0.1613E+02
 MRCHDU: Convergence failed at  43  side 2    Res =  0.3967E+02
 MRCHDU: Convergence failed at  44  side 2    Res =  0.2460E+03
 MRCHDU: Convergence failed at  45  side 2    Res =  0.2763E+02
 MRCHDU: Convergence failed at  46  side 2    Res =  0.1628E+02
 MRCHDU: Convergence failed at  47  side 2    Res =  0.1112E+02
 MRCHDU: Convergence failed at  48  side 2    Res =  0.3570E+02
 MRCHDU: Convergence failed at  49  side 2    Res =  0.5643E+02
 MRCHDU: Convergence failed at  50  side 2    Res =  0.1048E+03
 MRCHDU: Convergence failed at  51  side 2    Res =  0.1586E+03
 MRCHDU: Convergence failed at  52  side 2    Res =  0.2010E+03
 MRCHDU: Convergence failed at  53  side 2    Res =  0.9597E+03
 MRCHDU: Convergence failed at  54  side 2    Res =  0.4142E+03
 MRCHDU: Convergence failed at  55  side 2    Res =  0.1306E+03
 MRCHDU: Convergence failed at  56  side 2    Res =  0.8046E+02
 MRCHDU: Convergence failed at  57  side 2    Res =  0.8539E+02
 MRCHDU: Convergence failed at  58  side 2    Res =  0.6367E+02
 MRCHDU: Convergence failed at  59  side 2    Res =  0.5181E+02
 MRCHDU: Convergence failed at  60  side 2    Res =  0.6211E+02
 MRCHDU: Convergence failed at  61  side 2    Res =  0.5243E+02
 MRCHDU: Convergence failed at  62  side 2    Res =  0.4605E+02
 MRCHDU: Convergence failed at  63  side 2    Res =  0.4151E+02
 MRCHDU: Convergence failed at  64  side 2    Res =  0.3809E+02
 MRCHDU: Convergence failed at  65  side 2    Res =  0.3551E+02
 MRCHDU: Convergence failed at  66  side 2    Res =  0.3350E+02
 MRCHDU: Convergence failed at  67  side 2    Res =  0.3191E+02
 MRCHDU: Convergence failed at  68  side 2    Res =  0.3068E+02
 MRCHDU: Convergence failed at  69  side 2    Res =  0.2970E+02
 MRCHDU: Convergence failed at  70  side 2    Res =  0.2904E+02
 MRCHDU: Convergence failed at  71  side 2    Res =  0.2859E+02
 MRCHDU: Convergence failed at  72  side 2    Res =  0.2832E+02
 MRCHDU: Convergence failed at  73  side 2    Res =  0.2827E+02
 MRCHDU: Convergence failed at  74  side 2    Res =  0.2835E+02
 MRCHDU: Convergence failed at  75  side 2    Res =  0.2864E+02
 MRCHDU: Convergence failed at  76  side 2    Res =  0.2907E+02
 MRCHDU: Convergence failed at  77  side 2    Res =  0.2970E+02
 MRCHDU: Convergence failed at  78  side 2    Res =  0.3047E+02
 MRCHDU: Convergence failed at  79  side 2    Res =  0.3152E+02
 MRCHDU: Convergence failed at  80  side 2    Res =  0.3283E+02
 MRCHDU: Convergence failed at  81  side 2    Res =  0.4361E+02
 MRCHDU: Convergence failed at  82  side 2    Res =  0.4729E+02
 MRCHDU: Convergence failed at  83  side 2    Res =  0.5285E+02
 MRCHDU: Convergence failed at  84  side 2    Res =  0.6024E+02
 MRCHDU: Convergence failed at  85  side 2    Res =  0.7126E+02
 MRCHDU: Convergence failed at  86  side 2    Res =  0.9010E+02
 MRCHDU: Convergence failed at  87  side 2    Res =  0.1280E+03
 MRCHDU: Convergence failed at  88  side 2    Res =  0.2496E+03
 MRCHDU: Convergence failed at  89  side 2    Res =  0.5831E+05
 MRCHDU: Convergence failed at  90  side 2    Res =  0.2070E+03
 MRCHDU: Convergence failed at  91  side 2    Res =  0.1390E+03
 MRCHDU: Convergence failed at  92  side 2    Res =  0.3925E+03
 MRCHDU: Convergence failed at  93  side 2    Res =  0.1360E+03
 MRCHDU: Convergence failed at  94  side 2    Res =  0.8948E+02
 MRCHDU: Convergence failed at  95  side 2    Res =  0.2636E+02
 MRCHDU: Convergence failed at 106  side 2    Res =  0.2266E+01
 MRCHDU: Convergence failed at 108  side 2    Res =  0.1902E+01
 MRCHDU: Convergence failed at 109  side 2    Res =  0.2008E+01
 MRCHDU: Convergence failed at 110  side 2    Res =  0.2435E+01
 MRCHDU: Convergence failed at 111  side 2    Res =  0.9653E+00
 MRCHDU: Convergence failed at 112  side 2    Res =  0.1424E+01
 MRCHDU: Convergence failed at 113  side 2    Res =  0.1755E+01
 MRCHDU: Convergence failed at 114  side 2    Res =  0.1338E+01
 Side 1 forced transition at x/c =  1.0000   67
 Side 2  free  transition at x/c =  0.0092   26

  66   rms: 0.6792E+01   max: 0.2323E+02   D at   91  2   RLX: 0.065
       a =-19.000      CL = -3.0540
      Cm =  0.6881     CD =  0.00798   =>   CDf =  0.00126    CDp =  0.00672

 MRCHDU: Convergence failed at  48  side 2    Res =  0.1550E-01
 MRCHDU: Convergence failed at  54  side 2    Res =  0.6517E-01
 MRCHDU: Convergence failed at  61  side 2    Res =  0.1543E-01
 Side 1 forced transition at x/c =  1.0000   67
 Side 2  free  transition at x/c =  0.0088   26
 idif Ue xi dudx           1  0.19892330      1.30325556E-02   15.263569    
 Uenew xinew           2  0.10123300      6.63232803E-03

  67   rms: 0.1615E+01   max: -.7238E+00   T at  116  2   RLX: 0.172
       a =-19.000      CL = -2.4124
      Cm =  0.4113     CD =  0.03951   =>   CDf =  0.00751    CDp =  0.03200

 MRCHDU: Convergence failed at  55  side 2    Res =  0.4346E-01
 MRCHDU: Convergence failed at  62  side 2    Res =  0.1898E-01
 Side 1 forced transition at x/c =  1.0000   66
 Side 2  free  transition at x/c =  0.0085   27
 idif Ue xi dudx           1  0.18836294      1.34088397E-02   14.047669    
 Uenew xinew           2  8.47630352E-02  6.03395700E-03

  68   rms: 0.1380E+01   max: -.3332E+01   D at   37  2   RLX: 0.150
       a =-19.000      CL = -2.2939
      Cm =  0.3254     CD =  0.03597   =>   CDf =  0.00708    CDp =  0.02889

 MRCHDU: Convergence failed at  56  side 2    Res =  0.8746E-02
 MRCHDU: Convergence failed at  63  side 2    Res =  0.1467E-01
 Side 1 forced transition at x/c =  1.0000   65
 Side 2  free  transition at x/c =  0.0083   28

  69   rms: 0.4718E+02   max: 0.3675E+02   T at   58  2   RLX: 0.001
       a =-19.000      CL = -2.2950
      Cm =  0.3240     CD =  0.03696   =>   CDf =  0.00712    CDp =  0.02984

 MRCHDU: Convergence failed at  56  side 2    Res =  0.2295E-01
 MRCHDU: Convergence failed at  63  side 2    Res =  0.1560E-01
 Side 1 forced transition at x/c =  1.0000   65
 Side 2  free  transition at x/c =  0.0083   28

  70   rms: 0.1531E+01   max: -.5237E+01   C at   45  2   RLX: 0.058
       a =-19.000      CL = -2.2627
      Cm =  0.2969     CD =  0.03533   =>   CDf =  0.00707    CDp =  0.02826

 MRCHDU: Convergence failed at  43  side 2    Res =  0.1021E+01
 MRCHDU: Convergence failed at  44  side 2    Res =  0.1207E+01
 MRCHDU: Convergence failed at  63  side 2    Res =  0.5542E-02
 Side 1 forced transition at x/c =  1.0000   65
 Side 2  free  transition at x/c =  0.0082   28
 idif Ue xi dudx           1  0.22072679      1.78113580E-02   12.392474    
 Uenew xinew           2  0.11555278      9.32443142E-03

  71   rms: 0.1109E+01   max: -.6632E+00   T at  118  2   RLX: 0.259
       a =-19.000      CL = -2.1907
      Cm =  0.1872     CD =  0.02941   =>   CDf =  0.00685    CDp =  0.02256

 Side 1 forced transition at x/c =  1.0000   64
 Side 2  free  transition at x/c =  0.0079   28

  72   rms: 0.2463E+02   max: 0.1401E+03   D at   64  2   RLX: 0.002
       a =-19.000      CL = -2.1967
      Cm =  0.1884     CD =  0.03095   =>   CDf =  0.00664    CDp =  0.02432

 Side 1 forced transition at x/c =  1.0000   64
 Side 2  free  transition at x/c =  0.0079   28
 idif Ue xi dudx           1  0.20106252      1.82298422E-02   11.029306    
 Uenew xinew           2  9.43293646E-02  8.55261087E-03

  73   rms: 0.8461E+00   max: -.7246E+00   D at  107  2   RLX: 0.316
       a =-19.000      CL = -2.0629
      Cm =  0.0971     CD =  0.02382   =>   CDf =  0.00600    CDp =  0.01782

 MRCHDU: Convergence failed at  49  side 2    Res =  0.3290E+00
 MRCHDU: Convergence failed at  50  side 2    Res =  0.1098E+01
 MRCHDU: Convergence failed at  54  side 2    Res =  0.8408E+00
 MRCHDU: Convergence failed at  56  side 2    Res =  0.9621E+02
 MRCHDU: Convergence failed at  57  side 2    Res =  0.2788E+01
 Side 1 forced transition at x/c =  1.0000   63
 Side 2  free  transition at x/c =  0.0078   29
 idif Ue xi dudx           1  0.13356920      1.31895542E-02   10.126892    
 Uenew xinew           2  2.31502466E-02  2.28601694E-03

  74   rms: 0.6573E+00   max: -.1657E+01   C at   65  2   RLX: 0.285
       a =-19.000      CL = -2.0546
      Cm =  0.0463     CD =  0.02248   =>   CDf =  0.00586    CDp =  0.01662

 MRCHDU: Convergence failed at  61  side 2    Res =  0.1158E+01
 MRCHDU: Convergence failed at  62  side 2    Res =  0.1581E+01
 MRCHDU: Convergence failed at  63  side 2    Res =  0.7586E+00
 MRCHDU: Convergence failed at  64  side 2    Res =  0.9560E+00
 MRCHDU: Convergence failed at  65  side 2    Res =  0.3647E+01
 MRCHDU: Convergence failed at  68  side 2    Res =  0.9484E+00
 MRCHDU: Convergence failed at  69  side 2    Res =  0.1068E+01
 MRCHDU: Convergence failed at  70  side 2    Res =  0.1181E+01
 MRCHDU: Convergence failed at  71  side 2    Res =  0.1500E+01
 MRCHDU: Convergence failed at  72  side 2    Res =  0.2018E+01
 MRCHDU: Convergence failed at  73  side 2    Res =  0.4348E+01
 MRCHDU: Convergence failed at  74  side 2    Res =  0.3065E+01
 MRCHDU: Convergence failed at  77  side 2    Res =  0.5868E+01
 MRCHDU: Convergence failed at  78  side 2    Res =  0.1235E+02
 MRCHDU: Convergence failed at  79  side 2    Res =  0.2925E+02
 MRCHDU: Convergence failed at  80  side 2    Res =  0.1050E+02
 MRCHDU: Convergence failed at  81  side 2    Res =  0.4198E+01
 MRCHDU: Convergence failed at  82  side 2    Res =  0.2513E+01
 MRCHDU: Convergence failed at  83  side 2    Res =  0.1955E+01
 MRCHDU: Convergence failed at  84  side 2    Res =  0.1547E+01
 MRCHDU: Convergence failed at  85  side 2    Res =  0.1396E+01
 MRCHDU: Convergence failed at  86  side 2    Res =  0.3023E+01
 MRCHDU: Convergence failed at  87  side 2    Res =  0.2976E+01
 MRCHDU: Convergence failed at  88  side 2    Res =  0.1156E+01
 MRCHDU: Convergence failed at  89  side 2    Res =  0.5351E+00
 MRCHDU: Convergence failed at  90  side 2    Res =  0.3196E+01
 MRCHDU: Convergence failed at  91  side 2    Res =  0.3540E+01
 MRCHDU: Convergence failed at  92  side 2    Res =  0.5633E+01
 MRCHDU: Convergence failed at  93  side 2    Res =  0.1545E+02
 MRCHDU: Convergence failed at  94  side 2    Res =  0.1602E+02
 MRCHDU: Convergence failed at  95  side 2    Res =  0.5666E+01
 MRCHDU: Convergence failed at  96  side 2    Res =  0.3651E+01
 MRCHDU: Convergence failed at  97  side 2    Res =  0.2834E+01
 MRCHDU: Convergence failed at  98  side 2    Res =  0.2374E+01
 MRCHDU: Convergence failed at  99  side 2    Res =  0.2138E+01
 MRCHDU: Convergence failed at 100  side 2    Res =  0.2073E+01
 Side 1 forced transition at x/c =  1.0000   62
 Side 2  free  transition at x/c =  0.0077   30

  75   rms: 0.7521E+00   max: 0.1214E+01   T at  105  2   RLX: 0.538
       a =-19.000      CL = -2.2461
      Cm =  0.1253     CD =  0.01276   =>   CDf =  0.00899    CDp =  0.00377

 Side 1 forced transition at x/c =  1.0000   62
 Side 2  free  transition at x/c =  0.0073   30
 idif Ue xi dudx           1  0.13689435      1.67102218E-02   8.1922522    
 Uenew xinew           2  3.83898541E-02  4.68611717E-03

  76   rms: 0.4391E+00   max: 0.1320E+01   D at  100  2
       a =-19.000      CL = -1.8367
      Cm = -0.0423     CD =  0.02730   =>   CDf =  0.00579    CDp =  0.02151

 MRCHDU: Convergence failed at  72  side 2    Res =  0.3968E+01
 MRCHDU: Convergence failed at  73  side 2    Res =  0.3634E+01
 MRCHDU: Convergence failed at  74  side 2    Res =  0.3745E+01
 MRCHDU: Convergence failed at  75  side 2    Res =  0.4280E+01
 MRCHDU: Convergence failed at  76  side 2    Res =  0.1389E+02
 MRCHDU: Convergence failed at  77  side 2    Res =  0.1019E+02
 MRCHDU: Convergence failed at  78  side 2    Res =  0.9913E+01
 MRCHDU: Convergence failed at  79  side 2    Res =  0.9933E+01
 MRCHDU: Convergence failed at  80  side 2    Res =  0.1103E+02
 MRCHDU: Convergence failed at  81  side 2    Res =  0.1174E+02
 MRCHDU: Convergence failed at  82  side 2    Res =  0.1267E+02
 MRCHDU: Convergence failed at  83  side 2    Res =  0.1617E+02
 MRCHDU: Convergence failed at  84  side 2    Res =  0.2150E+02
 MRCHDU: Convergence failed at  85  side 2    Res =  0.2671E+02
 MRCHDU: Convergence failed at  86  side 2    Res =  0.3620E+02
 MRCHDU: Convergence failed at  87  side 2    Res =  0.8308E+02
 MRCHDU: Convergence failed at  88  side 2    Res =  0.9268E+02
 MRCHDU: Convergence failed at  89  side 2    Res =  0.4597E+02
 MRCHDU: Convergence failed at  90  side 2    Res =  0.3076E+02
 MRCHDU: Convergence failed at  91  side 2    Res =  0.1714E+02
 MRCHDU: Convergence failed at  92  side 2    Res =  0.1449E+02
 MRCHDU: Convergence failed at  93  side 2    Res =  0.1174E+02
 MRCHDU: Convergence failed at  94  side 2    Res =  0.8553E+01
 MRCHDU: Convergence failed at  95  side 2    Res =  0.7830E+01
 MRCHDU: Convergence failed at  96  side 2    Res =  0.6896E+01
 MRCHDU: Convergence failed at  97  side 2    Res =  0.5935E+01
 MRCHDU: Convergence failed at  98  side 2    Res =  0.5614E+01
 MRCHDU: Convergence failed at  99  side 2    Res =  0.6154E+01
 MRCHDU: Convergence failed at 100  side 2    Res =  0.6547E+01
 MRCHDU: Convergence failed at 101  side 2    Res =  0.6876E+01
 MRCHDU: Convergence failed at 103  side 2    Res =  0.5881E+01
 Side 1 forced transition at x/c =  1.0000   61
 Side 2  free  transition at x/c =  0.0072   31

  77   rms: 0.5564E+00   max: 0.2072E+01   D at  111  2   RLX: 0.414
       a =-19.000      CL = -1.9380
      Cm =  0.0648     CD =  0.02832   =>   CDf =  0.00323    CDp =  0.02509

 Side 1 forced transition at x/c =  1.0000   61
 Side 2  free  transition at x/c =  0.0074   31

  78   rms: 0.2764E+02   max: 0.1008E+03   D at   65  2   RLX: 0.015
       a =-19.000      CL = -1.8702
      Cm =  0.0990     CD =  0.06611   =>   CDf =  0.00351    CDp =  0.06260

 Side 1 forced transition at x/c =  1.0000   62
 Side 2  free  transition at x/c =  0.0076   30

  79   rms: 0.1531E+01   max: -.7624E+01   D at   50  2   RLX: 0.066
       a =-19.000      CL = -1.8600
      Cm =  0.0746     CD =  0.04470   =>   CDf =  0.00258    CDp =  0.04212

 Side 1 forced transition at x/c =  1.0000   62
 Side 2  free  transition at x/c =  0.0076   30

  80   rms: 0.2438E+01   max: 0.7343E+01   D at   53  2   RLX: 0.088
       a =-19.000      CL = -1.7521
      Cm =  0.0890     CD =  0.06784   =>   CDf =  0.00285    CDp =  0.06499

 Side 1 forced transition at x/c =  1.0000   62
 Side 2  free  transition at x/c =  0.0079   30

  81   rms: 0.6288E+01   max: -.2952E+02   D at   51  2   RLX: 0.017
       a =-19.000      CL = -1.7793
      Cm =  0.0708     CD =  0.05554   =>   CDf =  0.00269    CDp =  0.05285

 Side 1 forced transition at x/c =  1.0000   62
 Side 2  free  transition at x/c =  0.0078   30

  82   rms: 0.6959E+00   max: 0.1708E+01   D at  106  2   RLX: 0.462
       a =-19.000      CL = -1.4437
      Cm =  0.0372     CD =  0.08796   =>   CDf =  0.00339    CDp =  0.08457

 Side 1 forced transition at x/c =  1.0000   63
 Side 2  free  transition at x/c =  0.0091   30

  83   rms: 0.1924E+01   max: 0.9093E+01   D at   50  2   RLX: 0.165
       a =-19.000      CL = -1.2550
      Cm =  0.0350     CD =  0.12469   =>   CDf =  0.00314    CDp =  0.12156

 Side 1 forced transition at x/c =  1.0000   64
 Side 2  free  transition at x/c =  0.0099   29

  84   rms: 0.7468E+00   max: 0.3653E+01   D at   44  2   RLX: 0.411
       a =-19.000      CL = -1.0177
      Cm =  0.0200     CD =  0.15061   =>   CDf =  0.00277    CDp =  0.14785

 Side 1 forced transition at x/c =  1.0000   65
 Side 2  free  transition at x/c =  0.0108   29

  85   rms: 0.2466E+00   max: 0.1545E+01   D at   40  2   RLX: 0.971
       a =-19.000      CL = -0.8633
      Cm =  0.0091     CD =  0.17799   =>   CDf =  0.00249    CDp =  0.17550

 Side 1 forced transition at x/c =  1.0000   66
 Side 2  free  transition at x/c =  0.0117   28
 idif Ue xi dudx           1  0.10853246      7.82090425E-03   13.877226    
 Uenew xinew           2  6.18954189E-03  4.46021557E-04

  86   rms: 0.5549E-01   max: -.2817E+00   D at   39  2
       a =-19.000      CL = -0.8826
      Cm =  0.0049     CD =  0.15702   =>   CDf =  0.00189    CDp =  0.15512

 Side 1 forced transition at x/c =  1.0000   65
 Side 2  free  transition at x/c =  0.0115   29

  87   rms: 0.4579E-02   max: 0.5696E-01   D at  114  2
       a =-19.000      CL = -0.8822
      Cm =  0.0041     CD =  0.15388   =>   CDf =  0.00212    CDp =  0.15176

 Side 1 forced transition at x/c =  1.0000   65
 Side 2  free  transition at x/c =  0.0116   29

  88   rms: 0.9510E-03   max: -.8318E-02   D at  114  2
       a =-19.000      CL = -0.8827
      Cm =  0.0041     CD =  0.15409   =>   CDf =  0.00212    CDp =  0.15197

 Side 1 forced transition at x/c =  1.0000   65
 Side 2  free  transition at x/c =  0.0116   29

  89   rms: 0.5335E-04   max: -.3864E-03   D at  114  2
       a =-19.000      CL = -0.8827
      Cm =  0.0042     CD =  0.15414   =>   CDf =  0.00212    CDp =  0.15202
 plradd ia,ip,cpol            3          64  5.63274720E-04

 Point added to stored polar  1
 Save file unspecified or not available
 Dump file unspecified or not available

.OPERva   c>  
.OPERva   c>  
.OPERva   c>   Calculating wake trajectory ...
 Calculating source influence matrix ...

 Solving BL system ...

 Side 1 forced transition at x/c =  1.0000   65
 Side 2  free  transition at x/c =  0.0116   29

   1   rms: 0.1342E+00   max: -.8319E+00   D at   37  2   RLX: 0.484
       a =-18.500      CL = -0.8988
      Cm = -0.0019     CD =  0.14087   =>   CDf =  0.00211    CDp =  0.13875

 Side 1 forced transition at x/c =  1.0000   65
 Side 2  free  transition at x/c =  0.0119   29

   2   rms: 0.8372E-01   max: -.4342E+00   D at   37  2
       a =-18.500      CL = -0.9295
      Cm = -0.0086     CD =  0.12854   =>   CDf =  0.00220    CDp =  0.12634

 Side 1 forced transition at x/c =  1.0000   65
 Side 2  free  transition at x/c =  0.0121   29

   3   rms: 0.3543E-01   max: -.9812E-01   D at  117  2
       a =-18.500      CL = -0.9523
      Cm = -0.0093     CD =  0.12893   =>   CDf =  0.00231    CDp =  0.12662

 Side 1 forced transition at x/c =  1.0000   65
 Side 2  free  transition at x/c =  0.0119   29

   4   rms: 0.5885E-02   max: -.2241E-01   D at  113  2
       a =-18.500      CL = -0.9560
      Cm = -0.0094     CD =  0.12971   =>   CDf =  0.00234    CDp =  0.12737

 Side 1 forced transition at x/c =  1.0000   65
 Side 2  free  transition at x/c =  0.0118   29

   5   rms: 0.8259E-03   max: -.4237E-02   D at  113  2
       a =-18.500      CL = -0.9568
      Cm = -0.0093     CD =  0.13007   =>   CDf =  0.00234    CDp =  0.12773

 Side 1 forced transition at x/c =  1.0000   65
 Side 2  free  transition at x/c =  0.0118   29

   6   rms: 0.1999E-03   max: 0.7269E-03   D at   40  2
       a =-18.500      CL = -0.9567
      Cm = -0.0092     CD =  0.13009   =>   CDf =  0.00234    CDp =  0.12775

 Side 1 forced transition at x/c =  1.0000   65
 Side 2  free  transition at x/c =  0.0118   29

   7   rms: 0.2471E-04   max: 0.1162E-03   D at  113  2
       a =-18.500      CL = -0.9566
      Cm = -0.0092     CD =  0.13008   =>   CDf =  0.00234    CDp =  0.12775
 plradd ia,ip,cpol            4          64  5.63274720E-04

 Point added to stored polar  1
 Save file unspecified or not available
 Dump file unspecified or not available

.OPERva   c>  
.OPERva   c>  
.OPERva   c>   Calculating wake trajectory ...
 Calculating source influence matrix ...

 Solving BL system ...

 Side 1 forced transition at x/c =  1.0000   65
 Side 2  free  transition at x/c =  0.0118   29

   1   rms: 0.3343E+00   max: -.1781E+01   D at   40  2   RLX: 0.281
       a =-18.000      CL = -0.9936
      Cm = -0.0168     CD =  0.11461   =>   CDf =  0.00233    CDp =  0.11228

 Side 1 forced transition at x/c =  1.0000   65
 Side 2  free  transition at x/c =  0.0118   29

   2   rms: 0.9742E-01   max: -.4708E+00   D at   40  2
       a =-18.000      CL = -1.0362
      Cm = -0.0251     CD =  0.09986   =>   CDf =  0.00248    CDp =  0.09738

 Side 1 forced transition at x/c =  1.0000   65
 Side 2  free  transition at x/c =  0.0118   29

   3   rms: 0.4799E-01   max: -.1297E+00   D at  116  2
       a =-18.000      CL = -1.0693
      Cm = -0.0265     CD =  0.09873   =>   CDf =  0.00263    CDp =  0.09610

 Side 1 forced transition at x/c =  1.0000   65
 Side 2  free  transition at x/c =  0.0115   29

   4   rms: 0.1241E-01   max: -.5115E-01   D at  112  2
       a =-18.000      CL = -1.0784
      Cm = -0.0264     CD =  0.09929   =>   CDf =  0.00267    CDp =  0.09661

 Side 1 forced transition at x/c =  1.0000   65
 Side 2  free  transition at x/c =  0.0115   29
 idif Ue xi dudx           1  0.10630260      8.50057602E-03   12.505341    
 Uenew xinew           2  1.70691186E-04  1.36494637E-05

   5   rms: 0.1320E-02   max: 0.6173E-02   D at  112  2
       a =-18.000      CL = -1.0794
      Cm = -0.0264     CD =  0.09953   =>   CDf =  0.00236    CDp =  0.09718

 Side 1 forced transition at x/c =  1.0000   64
 Side 2  free  transition at x/c =  0.0114   30

   6   rms: 0.1951E-02   max: -.3439E-01   D at    2  2
       a =-18.000      CL = -1.0795
      Cm = -0.0264     CD =  0.09957   =>   CDf =  0.00268    CDp =  0.09689

 Side 1 forced transition at x/c =  1.0000   64
 Side 2  free  transition at x/c =  0.0114   30

   7   rms: 0.2146E-03   max: -.2647E-02   D at    4  2
       a =-18.000      CL = -1.0795
      Cm = -0.0264     CD =  0.09957   =>   CDf =  0.00268    CDp =  0.09690

 Side 1 forced transition at x/c =  1.0000   64
 Side 2  free  transition at x/c =  0.0114   30

   8   rms: 0.6956E-05   max: 0.3302E-04   D at    3  2
       a =-18.000      CL = -1.0795
      Cm = -0.0264     CD =  0.09957   =>   CDf =  0.00268    CDp =  0.09690
 plradd ia,ip,cpol            5          63  5.63274720E-04

 Point added to stored polar  1
 Save file unspecified or not available
 Dump file unspecified or not available

.OPERva   c>  
.OPERva   c>  
.OPERva   c>   Calculating wake trajectory ...
 Calculating source influence matrix ...

 Solving BL system ...

 Side 1 forced transition at x/c =  1.0000   64
 Side 2  free  transition at x/c =  0.0114   30

   1   rms: 0.3481E+00   max: -.1604E+01   D at   45  2   RLX: 0.312
       a =-17.500      CL = -1.1270
      Cm = -0.0351     CD =  0.08346   =>   CDf =  0.00267    CDp =  0.08079

 Side 1 forced transition at x/c =  1.0000   64
 Side 2  free  transition at x/c =  0.0112   30

   2   rms: 0.2014E+00   max: -.8378E+00   D at   48  2   RLX: 0.597
       a =-17.500      CL = -1.1904
      Cm = -0.0435     CD =  0.07060   =>   CDf =  0.00287    CDp =  0.06774

 Side 1 forced transition at x/c =  1.0000   64
 Side 2  free  transition at x/c =  0.0110   30

   3   rms: 0.8125E-01   max: -.2933E+00   D at   48  2
       a =-17.500      CL = -1.2297
      Cm = -0.0474     CD =  0.06340   =>   CDf =  0.00310    CDp =  0.06031

 Side 1 forced transition at x/c =  1.0000   64
 Side 2  free  transition at x/c =  0.0107   30

   4   rms: 0.2377E-01   max: -.8134E-01   D at  115  2
       a =-17.500      CL = -1.2451
      Cm = -0.0474     CD =  0.06388   =>   CDf =  0.00321    CDp =  0.06067

 Side 1 forced transition at x/c =  1.0000   64
 Side 2  free  transition at x/c =  0.0106   30

   5   rms: 0.2950E-02   max: -.1749E-01   D at  110  2
       a =-17.500      CL = -1.2476
      Cm = -0.0472     CD =  0.06424   =>   CDf =  0.00323    CDp =  0.06101

 Side 1 forced transition at x/c =  1.0000   64
 Side 2  free  transition at x/c =  0.0105   30

   6   rms: 0.3110E-03   max: 0.1389E-02   D at   54  2
       a =-17.500      CL = -1.2475
      Cm = -0.0471     CD =  0.06429   =>   CDf =  0.00323    CDp =  0.06106

 Side 1 forced transition at x/c =  1.0000   64
 Side 2  free  transition at x/c =  0.0105   30

   7   rms: 0.9580E-04   max: 0.2837E-03   D at  110  2
       a =-17.500      CL = -1.2475
      Cm = -0.0471     CD =  0.06429   =>   CDf =  0.00323    CDp =  0.06106
 plradd ia,ip,cpol            6          63  5.63274720E-04

 Point added to stored polar  1
 Save file unspecified or not available
 Dump file unspecified or not available

.OPERva   c>  
.OPERva   c>  
.OPERva   c>   Calculating wake trajectory ...
 Calculating source influence matrix ...

 Solving BL system ...

 Side 1 forced transition at x/c =  1.0000   64
 Side 2  free  transition at x/c =  0.0105   30

   1   rms: 0.2209E+00   max: -.9437E+00   D at   54  2   RLX: 0.530
       a =-17.000      CL = -1.2824
      Cm = -0.0569     CD =  0.04952   =>   CDf =  0.00322    CDp =  0.04631

 Side 1 forced transition at x/c =  1.0000   64
 Side 2  free  transition at x/c =  0.0105   30

   2   rms: 0.1003E+00   max: -.3834E+00   D at   62  2
       a =-17.000      CL = -1.3075
      Cm = -0.0631     CD =  0.04235   =>   CDf =  0.00349    CDp =  0.03886

 Side 1 forced transition at x/c =  1.0000   64
 Side 2  free  transition at x/c =  0.0105   30

   3   rms: 0.2285E-01   max: -.1090E+00   D at   62  2
       a =-17.000      CL = -1.3172
      Cm = -0.0626     CD =  0.04361   =>   CDf =  0.00369    CDp =  0.03993

 Side 1 forced transition at x/c =  1.0000   64
 Side 2  free  transition at x/c =  0.0104   29

   4   rms: 0.2595E-02   max: -.1290E-01   D at  108  2
       a =-17.000      CL = -1.3191
      Cm = -0.0624     CD =  0.04373   =>   CDf =  0.00369    CDp =  0.04003

 Side 1 forced transition at x/c =  1.0000   64
 Side 2  free  transition at x/c =  0.0104   29

   5   rms: 0.1675E-03   max: -.8733E-03   D at  108  2
       a =-17.000      CL = -1.3192
      Cm = -0.0624     CD =  0.04373   =>   CDf =  0.00369    CDp =  0.04004

 Side 1 forced transition at x/c =  1.0000   64
 Side 2  free  transition at x/c =  0.0104   29

   6   rms: 0.9639E-05   max: -.3671E-04   D at  108  2
       a =-17.000      CL = -1.3192
      Cm = -0.0624     CD =  0.04373   =>   CDf =  0.00369    CDp =  0.04004
 plradd ia,ip,cpol            7          63  5.63274720E-04

 Point added to stored polar  1
 Save file unspecified or not available
 Dump file unspecified or not available

.OPERva   c>  
.OPERva   c>  
.OPERva   c>   Calculating wake trajectory ...
 Calculating source influence matrix ...

 Solving BL system ...

 Side 1 forced transition at x/c =  1.0000   64
 Side 2  free  transition at x/c =  0.0104   29

   1   rms: 0.1275E+00   max: -.4986E+00   D at   69  2
       a =-16.500      CL = -1.3288
      Cm = -0.0720     CD =  0.03178   =>   CDf =  0.00368    CDp =  0.02810

 Side 1 forced transition at x/c =  1.0000   64
 Side 2  free  transition at x/c =  0.0108   30

   2   rms: 0.2203E-01   max: -.1591E+00   D at   70  2
       a =-16.500      CL = -1.3366
      Cm = -0.0691     CD =  0.03432   =>   CDf =  0.00401    CDp =  0.03031

 Side 1 forced transition at x/c =  1.0000   64
 Side 2  free  transition at x/c =  0.0107   30

   3   rms: 0.1950E-02   max: -.2418E-01   D at   70  2
       a =-16.500      CL = -1.3379
      Cm = -0.0689     CD =  0.03439   =>   CDf =  0.00400    CDp =  0.03039

 Side 1 forced transition at x/c =  1.0000   64
 Side 2  free  transition at x/c =  0.0107   30

   4   rms: 0.6050E-04   max: -.5312E-03   D at   70  2
       a =-16.500      CL = -1.3380
      Cm = -0.0688     CD =  0.03439   =>   CDf =  0.00400    CDp =  0.03039
 plradd ia,ip,cpol            8          63  5.63274720E-04

 Point added to stored polar  1
 Save file unspecified or not available
 Dump file unspecified or not available

.OPERva   c>  
.OPERva   c>  
.OPERva   c>   Calculating wake trajectory ...
 Calculating source influence matrix ...

 Solving BL system ...

 Side 1 forced transition at x/c =  1.0000   64
 Side 2  free  transition at x/c =  0.0107   30

   1   rms: 0.9734E-01   max: -.3414E+00   D at   80  2
       a =-16.000      CL = -1.3372
      Cm = -0.0720     CD =  0.02795   =>   CDf =  0.00399    CDp =  0.02396

 Side 1 forced transition at x/c =  1.0000   64
 Side 2  free  transition at x/c =  0.0113   30

   2   rms: 0.7268E-02   max: -.6404E-01   D at   81  2
       a =-16.000      CL = -1.3393
      Cm = -0.0692     CD =  0.02953   =>   CDf =  0.00423    CDp =  0.02530

 Side 1 forced transition at x/c =  1.0000   64
 Side 2  free  transition at x/c =  0.0112   30

   3   rms: 0.3328E-03   max: -.3041E-02   D at   81  2
       a =-16.000      CL = -1.3392
      Cm = -0.0692     CD =  0.02955   =>   CDf =  0.00421    CDp =  0.02534

 Side 1 forced transition at x/c =  1.0000   64
 Side 2  free  transition at x/c =  0.0112   30

   4   rms: 0.9118E-05   max: 0.4210E-04   D at  105  2
       a =-16.000      CL = -1.3392
      Cm = -0.0692     CD =  0.02955   =>   CDf =  0.00421    CDp =  0.02534
 plradd ia,ip,cpol            9          63  5.63274720E-04

 Point added to stored polar  1
 Save file unspecified or not available
 Dump file unspecified or not available

.OPERva   c>  
.OPERva   c>  
.OPERva   c>   Calculating wake trajectory ...
 Calculating source influence matrix ...

 Solving BL system ...

 Side 1 forced transition at x/c =  1.0000   64
 Side 2  free  transition at x/c =  0.0112   30

   1   rms: 0.7715E-01   max: 0.2493E+00   C at   64  1
       a =-15.500      CL = -1.3303
      Cm = -0.0680     CD =  0.02600   =>   CDf =  0.00420    CDp =  0.02179

 Side 1 forced transition at x/c =  1.0000   64
 Side 2  free  transition at x/c =  0.0118   30

   2   rms: 0.4287E-02   max: 0.4676E-01   C at   64  1
       a =-15.500      CL = -1.3309
      Cm = -0.0664     CD =  0.02666   =>   CDf =  0.00440    CDp =  0.02226

 Side 1 forced transition at x/c =  1.0000   64
 Side 2  free  transition at x/c =  0.0118   30

   3   rms: 0.1070E-03   max: 0.7268E-03   D at   93  2
       a =-15.500      CL = -1.3308
      Cm = -0.0664     CD =  0.02666   =>   CDf =  0.00439    CDp =  0.02228

 Side 1 forced transition at x/c =  1.0000   64
 Side 2  free  transition at x/c =  0.0118   30

   4   rms: 0.2643E-05   max: 0.1093E-04   D at   94  2
       a =-15.500      CL = -1.3308
      Cm = -0.0664     CD =  0.02666   =>   CDf =  0.00439    CDp =  0.02228
 plradd ia,ip,cpol           10          63  5.63274720E-04

 Point added to stored polar  1
 Save file unspecified or not available
 Dump file unspecified or not available

.OPERva   c>  
.OPERva   c>  
.OPERva   c>   Calculating wake trajectory ...
 Calculating source influence matrix ...

 Solving BL system ...

 Side 1 forced transition at x/c =  1.0000   64
 Side 2  free  transition at x/c =  0.0118   30

   1   rms: 0.6853E-01   max: 0.3532E+00   C at   64  1
       a =-15.000      CL = -1.3165
      Cm = -0.0629     CD =  0.02439   =>   CDf =  0.00438    CDp =  0.02002

 Side 1 forced transition at x/c =  1.0000   64
 Side 2  free  transition at x/c =  0.0124   30

   2   rms: 0.7819E-02   max: 0.4419E-01   D at  104  2
       a =-15.000      CL = -1.3129
      Cm = -0.0628     CD =  0.02463   =>   CDf =  0.00454    CDp =  0.02009

 Side 1 forced transition at x/c =  1.0000   64
 Side 2  free  transition at x/c =  0.0125   30

   3   rms: 0.3113E-03   max: 0.1327E-02   D at  101  2
       a =-15.000      CL = -1.3125
      Cm = -0.0629     CD =  0.02464   =>   CDf =  0.00454    CDp =  0.02010

 Side 1 forced transition at x/c =  1.0000   64
 Side 2  free  transition at x/c =  0.0125   30

   4   rms: 0.2529E-05   max: -.2193E-04   D at  100  2
       a =-15.000      CL = -1.3125
      Cm = -0.0629     CD =  0.02464   =>   CDf =  0.00454    CDp =  0.02010
 plradd ia,ip,cpol           11          63  5.63274720E-04

 Point added to stored polar  1
 Save file unspecified or not available
 Dump file unspecified or not available

.OPERva   c>  
.OPERva   c>  
.OPERva   c>   Calculating wake trajectory ...
 Calculating source influence matrix ...

 Solving BL system ...

 Side 1 forced transition at x/c =  1.0000   64
 Side 2  free  transition at x/c =  0.0125   30

   1   rms: 0.6855E-01   max: -.1431E+00   D at   89  2
       a =-14.500      CL = -1.2851
      Cm = -0.0604     CD =  0.02282   =>   CDf =  0.00492    CDp =  0.01790

 Side 1 forced transition at x/c =  1.0000   65
 Side 2  free  transition at x/c =  0.0131   29

   2   rms: 0.4717E-02   max: 0.4469E-01   D at    3  1
       a =-14.500      CL = -1.2832
      Cm = -0.0604     CD =  0.02296   =>   CDf =  0.00471    CDp =  0.01825

 Side 1 forced transition at x/c =  1.0000   65
 Side 2  free  transition at x/c =  0.0131   30

   3   rms: 0.6899E-03   max: 0.9515E-02   D at   29  2
       a =-14.500      CL = -1.2832
      Cm = -0.0604     CD =  0.02296   =>   CDf =  0.00471    CDp =  0.01825

 Side 1 forced transition at x/c =  1.0000   65
 Side 2  free  transition at x/c =  0.0131   30

   4   rms: 0.1400E-04   max: -.1533E-03   D at   30  2
       a =-14.500      CL = -1.2832
      Cm = -0.0604     CD =  0.02296   =>   CDf =  0.00471    CDp =  0.01825
 plradd ia,ip,cpol           12          64  5.63274720E-04

 Point added to stored polar  1
 Save file unspecified or not available
 Dump file unspecified or not available

.OPERva   c>  
.OPERva   c>  
.OPERva   c>   Calculating wake trajectory ...
 Calculating source influence matrix ...

 Solving BL system ...

 Side 1 forced transition at x/c =  1.0000   65
 Side 2  free  transition at x/c =  0.0131   30

   1   rms: 0.7161E-01   max: -.1422E+00   D at   88  2
       a =-14.000      CL = -1.2534
      Cm = -0.0578     CD =  0.02117   =>   CDf =  0.00470    CDp =  0.01647

 Side 1 forced transition at x/c =  1.0000   65
 Side 2  free  transition at x/c =  0.0146   30

   2   rms: 0.6784E-02   max: -.5515E-01   D at   31  2
       a =-14.000      CL = -1.2511
      Cm = -0.0579     CD =  0.02143   =>   CDf =  0.00479    CDp =  0.01664

 Side 1 forced transition at x/c =  1.0000   65
 Side 2  free  transition at x/c =  0.0142   30

   3   rms: 0.2325E-03   max: -.2580E-02   D at   31  2
       a =-14.000      CL = -1.2509
      Cm = -0.0579     CD =  0.02143   =>   CDf =  0.00480    CDp =  0.01663

 Side 1 forced transition at x/c =  1.0000   65
 Side 2  free  transition at x/c =  0.0142   30

   4   rms: 0.1013E-05   max: 0.6107E-05   D at   99  2
       a =-14.000      CL = -1.2509
      Cm = -0.0579     CD =  0.02143   =>   CDf =  0.00480    CDp =  0.01663
 plradd ia,ip,cpol           13          64  5.63274720E-04

 Point added to stored polar  1
 Save file unspecified or not available
 Dump file unspecified or not available

.OPERva   c>  
.OPERva   c>  
.OPERva   c>   Calculating wake trajectory ...
 Calculating source influence matrix ...

 Solving BL system ...

 Side 1 forced transition at x/c =  1.0000   65
 Side 2  free  transition at x/c =  0.0142   30

   1   rms: 0.7057E-01   max: 0.1580E+00   D at   30  2
       a =-13.500      CL = -1.2162
      Cm = -0.0554     CD =  0.02010   =>   CDf =  0.00480    CDp =  0.01530

 Side 1 forced transition at x/c =  1.0000   65
 Side 2  free  transition at x/c =  0.0153   30

   2   rms: 0.4333E-02   max: 0.6309E-01   C at   65  1
       a =-13.500      CL = -1.2161
      Cm = -0.0553     CD =  0.02021   =>   CDf =  0.00490    CDp =  0.01532

 Side 1 forced transition at x/c =  1.0000   65
 Side 2  free  transition at x/c =  0.0155   30

   3   rms: 0.1701E-03   max: 0.2999E-02   C at   65  1
       a =-13.500      CL = -1.2161
      Cm = -0.0552     CD =  0.02022   =>   CDf =  0.00490    CDp =  0.01532

 Side 1 forced transition at x/c =  1.0000   65
 Side 2  free  transition at x/c =  0.0155   30

   4   rms: 0.2242E-05   max: 0.1889E-04   C at   65  1
       a =-13.500      CL = -1.2161
      Cm = -0.0552     CD =  0.02022   =>   CDf =  0.00490    CDp =  0.01532
 plradd ia,ip,cpol           14          64  5.63274720E-04

 Point added to stored polar  1
 Save file unspecified or not available
 Dump file unspecified or not available

.OPERva   c>  
.OPERva   c>  
.OPERva   c>   Calculating wake trajectory ...
[...]

 Side 1  free  transition at x/c =  0.0105   30
 Side 2 forced transition at x/c =  1.0000   62

   4   rms: 0.1309E-03   max: 0.7328E-03   D at   75  2
       a = 16.500      CL =  1.5942
      Cm = -0.0070     CD =  0.04272   =>   CDf =  0.00518    CDp =  0.03754

 Side 1  free  transition at x/c =  0.0105   30
 Side 2 forced transition at x/c =  1.0000   62

   5   rms: 0.4825E-05   max: 0.2772E-04   D at   74  2
       a = 16.500      CL =  1.5941
      Cm = -0.0070     CD =  0.04272   =>   CDf =  0.00518    CDp =  0.03754
 plradd ia,ip,cpol           72          99  2.02234936E-04

 Point added to stored polar  1
 Save file unspecified or not available
 Dump file unspecified or not available

.OPERva   c>  
.OPERva   c>  
.OPERva   c>   Calculating wake trajectory ...
 Calculating source influence matrix ...

 Solving BL system ...

 Side 1  free  transition at x/c =  0.0105   30
 Side 2 forced transition at x/c =  1.0000   62

   1   rms: 0.7078E-01   max: 0.2528E+00   D at   76  1   RLX: 0.742
       a = 17.000      CL =  1.5984
      Cm = -0.0072     CD =  0.04702   =>   CDf =  0.00518    CDp =  0.04183

 Side 1  free  transition at x/c =  0.0100   29
 Side 2 forced transition at x/c =  1.0000   62

   2   rms: 0.2167E-01   max: 0.1265E+00   D at   76  1
       a = 17.000      CL =  1.5958
      Cm = -0.0072     CD =  0.04851   =>   CDf =  0.00505    CDp =  0.04346

 Side 1  free  transition at x/c =  0.0100   29
 Side 2 forced transition at x/c =  1.0000   62

   3   rms: 0.3036E-02   max: 0.3020E-01   D at   75  1
       a = 17.000      CL =  1.5938
      Cm = -0.0071     CD =  0.04841   =>   CDf =  0.00499    CDp =  0.04342

 Side 1  free  transition at x/c =  0.0100   29
 Side 2 forced transition at x/c =  1.0000   62

   4   rms: 0.2500E-03   max: 0.2573E-02   D at   75  2
       a = 17.000      CL =  1.5936
      Cm = -0.0071     CD =  0.04839   =>   CDf =  0.00499    CDp =  0.04340

 Side 1  free  transition at x/c =  0.0100   29
 Side 2 forced transition at x/c =  1.0000   62

   5   rms: 0.1195E-04   max: 0.9080E-04   D at   75  2
       a = 17.000      CL =  1.5936
      Cm = -0.0071     CD =  0.04839   =>   CDf =  0.00499    CDp =  0.04340
 plradd ia,ip,cpol           73          99  2.02234936E-04

 Point added to stored polar  1
 Save file unspecified or not available
 Dump file unspecified or not available

.OPERva   c>  
.OPERva   c>  
.OPERva   c>   Calculating wake trajectory ...
 Calculating source influence matrix ...

 Solving BL system ...

 Side 1  free  transition at x/c =  0.0100   29
 Side 2 forced transition at x/c =  1.0000   62

   1   rms: 0.6766E-01   max: 0.2479E+00   D at   73  1   RLX: 0.683
       a = 17.500      CL =  1.5975
      Cm = -0.0078     CD =  0.05268   =>   CDf =  0.00500    CDp =  0.04769

 Side 1  free  transition at x/c =  0.0097   29
 Side 2 forced transition at x/c =  1.0000   62

   2   rms: 0.2824E-01   max: 0.1550E+00   D at   74  1
       a = 17.500      CL =  1.5917
      Cm = -0.0082     CD =  0.05523   =>   CDf =  0.00487    CDp =  0.05035

 Side 1  free  transition at x/c =  0.0096   29
 Side 2 forced transition at x/c =  1.0000   62

   3   rms: 0.4596E-02   max: 0.4202E-01   D at   72  1
       a = 17.500      CL =  1.5885
      Cm = -0.0081     CD =  0.05507   =>   CDf =  0.00480    CDp =  0.05027

 Side 1  free  transition at x/c =  0.0096   29
 Side 2 forced transition at x/c =  1.0000   62

   4   rms: 0.3231E-03   max: 0.1989E-02   D at   76  2
       a = 17.500      CL =  1.5883
      Cm = -0.0080     CD =  0.05503   =>   CDf =  0.00479    CDp =  0.05024

 Side 1  free  transition at x/c =  0.0096   29
 Side 2 forced transition at x/c =  1.0000   62

   5   rms: 0.1884E-04   max: 0.1055E-03   D at   76  2
       a = 17.500      CL =  1.5883
      Cm = -0.0080     CD =  0.05503   =>   CDf =  0.00479    CDp =  0.05023
 plradd ia,ip,cpol           74          99  2.02234936E-04

 Point added to stored polar  1
 Save file unspecified or not available
 Dump file unspecified or not available

.OPERva   c>  
.OPERva   c>  
.OPERva   c>   Calculating wake trajectory ...
 Calculating source influence matrix ...

 Solving BL system ...

 Side 1  free  transition at x/c =  0.0096   29
 Side 2 forced transition at x/c =  1.0000   62

   1   rms: 0.6946E-01   max: 0.2753E+00   D at   70  1   RLX: 0.626
       a = 18.000      CL =  1.5888
      Cm = -0.0093     CD =  0.05983   =>   CDf =  0.00480    CDp =  0.05503

 Side 1  free  transition at x/c =  0.0093   29
 Side 2 forced transition at x/c =  1.0000   62

   2   rms: 0.3251E-01   max: 0.1768E+00   D at   70  1
       a = 18.000      CL =  1.5817
      Cm = -0.0101     CD =  0.06314   =>   CDf =  0.00468    CDp =  0.05846

 Side 1  free  transition at x/c =  0.0092   29
 Side 2 forced transition at x/c =  1.0000   62

   3   rms: 0.6816E-02   max: 0.5487E-01   D at   69  1
       a = 18.000      CL =  1.5771
      Cm = -0.0099     CD =  0.06297   =>   CDf =  0.00460    CDp =  0.05838

 Side 1  free  transition at x/c =  0.0093   29
 Side 2 forced transition at x/c =  1.0000   62

   4   rms: 0.6389E-03   max: 0.5321E-02   D at   68  1
       a = 18.000      CL =  1.5766
      Cm = -0.0099     CD =  0.06291   =>   CDf =  0.00459    CDp =  0.05832

 Side 1  free  transition at x/c =  0.0093   29
 Side 2 forced transition at x/c =  1.0000   62

   5   rms: 0.5183E-04   max: 0.2415E-03   D at   76  2
       a = 18.000      CL =  1.5765
      Cm = -0.0099     CD =  0.06290   =>   CDf =  0.00458    CDp =  0.05832
 plradd ia,ip,cpol           75          99  2.02234936E-04

 Point added to stored polar  1
 Save file unspecified or not available
 Dump file unspecified or not available

.OPERva   c>  
.OPERva   c>  
.OPERva   c>   Calculating wake trajectory ...
 Calculating source influence matrix ...

 Solving BL system ...

 Side 1  free  transition at x/c =  0.0093   29
 Side 2 forced transition at x/c =  1.0000   62

   1   rms: 0.7226E-01   max: 0.3101E+00   D at   67  1   RLX: 0.573
       a = 18.500      CL =  1.5736
      Cm = -0.0116     CD =  0.06828   =>   CDf =  0.00459    CDp =  0.06369

 Side 1  free  transition at x/c =  0.0090   29
 Side 2 forced transition at x/c =  1.0000   62

   2   rms: 0.3625E-01   max: 0.2003E+00   D at   67  1
       a = 18.500      CL =  1.5644
      Cm = -0.0129     CD =  0.07246   =>   CDf =  0.00448    CDp =  0.06798

 Side 1  free  transition at x/c =  0.0089   29
 Side 2 forced transition at x/c =  1.0000   62

   3   rms: 0.8125E-02   max: 0.6494E-01   D at   66  1
       a = 18.500      CL =  1.5589
      Cm = -0.0127     CD =  0.07221   =>   CDf =  0.00438    CDp =  0.06783

 Side 1  free  transition at x/c =  0.0089   29
 Side 2 forced transition at x/c =  1.0000   62

   4   rms: 0.1054E-02   max: 0.9887E-02   D at   65  1
       a = 18.500      CL =  1.5581
      Cm = -0.0126     CD =  0.07213   =>   CDf =  0.00437    CDp =  0.06775

 Side 1  free  transition at x/c =  0.0090   29
 Side 2 forced transition at x/c =  1.0000   62

   5   rms: 0.1166E-03   max: 0.5636E-03   D at   77  2
       a = 18.500      CL =  1.5580
      Cm = -0.0126     CD =  0.07212   =>   CDf =  0.00437    CDp =  0.06775

 Side 1  free  transition at x/c =  0.0090   29
 Side 2 forced transition at x/c =  1.0000   62

   6   rms: 0.1090E-04   max: -.6633E-04   C at   62  2
       a = 18.500      CL =  1.5580
      Cm = -0.0126     CD =  0.07211   =>   CDf =  0.00437    CDp =  0.06775
 plradd ia,ip,cpol           76          99  2.02234936E-04

 Point added to stored polar  1
 Save file unspecified or not available
 Dump file unspecified or not available

.OPERva   c>  
.OPERva   c>  
.OPERva   c>   Calculating wake trajectory ...
 Calculating source influence matrix ...

 Solving BL system ...

 Side 1  free  transition at x/c =  0.0090   29
 Side 2 forced transition at x/c =  1.0000   62

   1   rms: 0.7389E-01   max: 0.3365E+00   D at   64  1   RLX: 0.525
       a = 19.000      CL =  1.5528
      Cm = -0.0148     CD =  0.07791   =>   CDf =  0.00392    CDp =  0.07399

 Side 1  free  transition at x/c =  0.0088   30
 Side 2 forced transition at x/c =  1.0000   61

   2   rms: 0.4159E-01   max: 0.2298E+00   D at   65  1
       a = 19.000      CL =  1.5402
      Cm = -0.0166     CD =  0.08330   =>   CDf =  0.00427    CDp =  0.07904

 Side 1  free  transition at x/c =  0.0087   30
 Side 2 forced transition at x/c =  1.0000   61

   3   rms: 0.1013E-01   max: 0.7697E-01   D at   64  1
       a = 19.000      CL =  1.5334
      Cm = -0.0164     CD =  0.08287   =>   CDf =  0.00415    CDp =  0.07872

 Side 1  free  transition at x/c =  0.0087   30
 Side 2 forced transition at x/c =  1.0000   61

   4   rms: 0.1365E-02   max: 0.1365E-01   D at   63  1
       a = 19.000      CL =  1.5324
      Cm = -0.0163     CD =  0.08276   =>   CDf =  0.00414    CDp =  0.07862

 Side 1  free  transition at x/c =  0.0087   30
 Side 2 forced transition at x/c =  1.0000   61

   5   rms: 0.1811E-03   max: 0.7749E-03   D at   76  2
       a = 19.000      CL =  1.5323
      Cm = -0.0163     CD =  0.08274   =>   CDf =  0.00414    CDp =  0.07860

 Side 1  free  transition at x/c =  0.0087   30
 Side 2 forced transition at x/c =  1.0000   61

   6   rms: 0.1837E-04   max: 0.9317E-04   D at   76  2
       a = 19.000      CL =  1.5323
      Cm = -0.0163     CD =  0.08274   =>   CDf =  0.00414    CDp =  0.07860
 plradd ia,ip,cpol           77         100  2.02234936E-04

 Point added to stored polar  1
 Save file unspecified or not available
 Dump file unspecified or not available

.OPERva   c>  
.OPERva   c>  
.OPERva   c>   Calculating wake trajectory ...
 Calculating source influence matrix ...

 Solving BL system ...

 Side 1  free  transition at x/c =  0.0087   30
 Side 2 forced transition at x/c =  1.0000   61

   1   rms: 0.7612E-01   max: 0.3677E+00   D at   62  1   RLX: 0.481
       a = 19.500      CL =  1.5248
      Cm = -0.0188     CD =  0.08891   =>   CDf =  0.00415    CDp =  0.08477

 Side 1  free  transition at x/c =  0.0086   30
 Side 2 forced transition at x/c =  1.0000   61

   2   rms: 0.4715E-01   max: 0.2660E+00   D at   62  1
       a = 19.500      CL =  1.5084
      Cm = -0.0215     CD =  0.09585   =>   CDf =  0.00405    CDp =  0.09180

 Side 1  free  transition at x/c =  0.0085   30
 Side 2 forced transition at x/c =  1.0000   61

   3   rms: 0.1085E-01   max: 0.8670E-01   D at   61  1
       a = 19.500      CL =  1.5013
      Cm = -0.0211     CD =  0.09502   =>   CDf =  0.00392    CDp =  0.09111

 Side 1  free  transition at x/c =  0.0085   30
 Side 2 forced transition at x/c =  1.0000   61

   4   rms: 0.1789E-02   max: 0.1721E-01   D at   60  1
       a = 19.500      CL =  1.5002
      Cm = -0.0211     CD =  0.09486   =>   CDf =  0.00390    CDp =  0.09096

 Side 1  free  transition at x/c =  0.0085   30
 Side 2 forced transition at x/c =  1.0000   61

   5   rms: 0.2099E-03   max: 0.1590E-02   D at   77  2
       a = 19.500      CL =  1.5000
      Cm = -0.0211     CD =  0.09483   =>   CDf =  0.00390    CDp =  0.09092

 Side 1  free  transition at x/c =  0.0085   30
 Side 2 forced transition at x/c =  1.0000   61

   6   rms: 0.1250E-04   max: 0.9198E-04   D at   77  2
       a = 19.500      CL =  1.5000
      Cm = -0.0210     CD =  0.09482   =>   CDf =  0.00390    CDp =  0.09092
 plradd ia,ip,cpol           78         100  2.02234936E-04

 Point added to stored polar  1
 Save file unspecified or not available
 Dump file unspecified or not available

.OPERva   c>  
.OPERva   c>  
.OPERva   c>   Calculating wake trajectory ...
 Calculating source influence matrix ...

 Solving BL system ...

 Side 1  free  transition at x/c =  0.0085   30
 Side 2 forced transition at x/c =  1.0000   61

   1   rms: 0.7830E-01   max: 0.3997E+00   D at   59  1   RLX: 0.441
       a = 20.000      CL =  1.4908
      Cm = -0.0237     CD =  0.10132   =>   CDf =  0.00391    CDp =  0.09741

 Side 1  free  transition at x/c =  0.0084   30
 Side 2 forced transition at x/c =  1.0000   61

   2   rms: 0.5352E-01   max: 0.3083E+00   D at   59  1
       a = 20.000      CL =  1.4709
      Cm = -0.0274     CD =  0.11003   =>   CDf =  0.00381    CDp =  0.10622

 Side 1  free  transition at x/c =  0.0083   30
 Side 2 forced transition at x/c =  1.0000   61

   3   rms: 0.1235E-01   max: 0.9957E-01   D at   58  1
       a = 20.000      CL =  1.4631
      Cm = -0.0269     CD =  0.10864   =>   CDf =  0.00367    CDp =  0.10497

 Side 1  free  transition at x/c =  0.0083   30
 Side 2 forced transition at x/c =  1.0000   61

   4   rms: 0.2025E-02   max: 0.2241E-01   D at   57  1
       a = 20.000      CL =  1.4619
      Cm = -0.0269     CD =  0.10840   =>   CDf =  0.00366    CDp =  0.10474

 Side 1  free  transition at x/c =  0.0084   30
 Side 2 forced transition at x/c =  1.0000   61

   5   rms: 0.2165E-03   max: 0.1119E-02   D at   78  2
       a = 20.000      CL =  1.4618
      Cm = -0.0269     CD =  0.10834   =>   CDf =  0.00366    CDp =  0.10469

 Side 1  free  transition at x/c =  0.0084   30
 Side 2 forced transition at x/c =  1.0000   61

   6   rms: 0.8724E-05   max: 0.8055E-04   D at   78  2
       a = 20.000      CL =  1.4618
      Cm = -0.0269     CD =  0.10833   =>   CDf =  0.00366    CDp =  0.10468
 plradd ia,ip,cpol           79         100  2.02234936E-04

 Point added to stored polar  1
 Save file unspecified or not available
 Dump file unspecified or not available

.OPERva   c>  
.OPERva   c>  
.OPERva   c>  
        airfoil                    Re           Mach       Ncrit  XtripT  XtripB     file
       ------------------------  ------------  ----------  -----  ------  ------    -------------------
 >  1  xfoil                     1.000e6       0.000        5.00   1.000   1.000    

Enter polar output filename   s>  
.OPERva   c>  
 ==============================================================
 Polar  1
  
       XFOIL         Version 6.99
  
 Calculated polar for: xfoil                                           
  
 1 1 Reynolds number fixed          Mach number fixed         
  
 xtrf =   1.000 (top)        1.000 (bottom)  
 Mach =   0.000     Re =     1.000 e 6     Ncrit =   5.000
  
   alpha    CL        CD       CDp       CM     Top_Xtr  Bot_Xtr
  ------ -------- --------- --------- -------- -------- --------
 -20.000  -0.7608   0.20778   0.20592   0.0330   1.0000   0.0083
 -19.500  -0.7456   0.20187   0.20002   0.0291   1.0000   0.0086
 -19.000  -0.8827   0.15414   0.15202   0.0042   1.0000   0.0116
 -18.500  -0.9566   0.13008   0.12775  -0.0092   1.0000   0.0118
 -18.000  -1.0795   0.09957   0.09690  -0.0264   1.0000   0.0114
 -17.500  -1.2475   0.06429   0.06106  -0.0471   1.0000   0.0105
 -17.000  -1.3192   0.04373   0.04004  -0.0624   1.0000   0.0104
 -16.500  -1.3380   0.03439   0.03039  -0.0688   1.0000   0.0107
 -16.000  -1.3392   0.02955   0.02534  -0.0692   1.0000   0.0112
 -15.500  -1.3308   0.02666   0.02228  -0.0664   1.0000   0.0118
 -15.000  -1.3125   0.02464   0.02010  -0.0629   1.0000   0.0125
 -14.500  -1.2832   0.02296   0.01825  -0.0604   1.0000   0.0131
 -14.000  -1.2509   0.02143   0.01663  -0.0579   1.0000   0.0142
 -13.500  -1.2161   0.02022   0.01532  -0.0552   1.0000   0.0155
 -13.000  -1.1812   0.01913   0.01411  -0.0523   1.0000   0.0164
 -12.500  -1.1459   0.01815   0.01308  -0.0492   1.0000   0.0176
 -12.000  -1.1011   0.01725   0.01210  -0.0479   0.9990   0.0188
 -11.500  -1.0424   0.01636   0.01109  -0.0494   0.9963   0.0200
 -11.000  -0.9824   0.01543   0.01012  -0.0511   0.9939   0.0215
 -10.500  -0.9245   0.01467   0.00929  -0.0522   0.9901   0.0228
 -10.000  -0.8634   0.01401   0.00853  -0.0538   0.9868   0.0239
  -9.500  -0.8026   0.01312   0.00759  -0.0554   0.9836   0.0254
  -9.000  -0.7467   0.01247   0.00689  -0.0558   0.9765   0.0268
  -8.500  -0.6880   0.01189   0.00625  -0.0566   0.9700   0.0281
  -8.000  -0.6320   0.01132   0.00561  -0.0568   0.9598   0.0292
  -7.500  -0.5787   0.01070   0.00493  -0.0563   0.9435   0.0310
  -7.000  -0.5252   0.01023   0.00440  -0.0557   0.9267   0.0328
  -6.500  -0.4712   0.00983   0.00391  -0.0553   0.9086   0.0342
  -6.000  -0.4172   0.00941   0.00343  -0.0547   0.8876   0.0374
  -5.500  -0.3629   0.00908   0.00303  -0.0543   0.8649   0.0419
  -5.000  -0.3084   0.00874   0.00266  -0.0539   0.8404   0.0511
  -4.500  -0.2538   0.00845   0.00234  -0.0536   0.8152   0.0662
  -4.000  -0.1988   0.00820   0.00207  -0.0533   0.7887   0.0824
  -3.500  -0.1435   0.00800   0.00184  -0.0531   0.7621   0.0998
  -3.000  -0.0881   0.00786   0.00165  -0.0529   0.7345   0.1171
  -2.500  -0.0327   0.00768   0.00148  -0.0527   0.7056   0.1450
  -2.000   0.0221   0.00742   0.00134  -0.0525   0.6757   0.2030
  -1.500   0.0772   0.00726   0.00126  -0.0523   0.6434   0.2554
  -1.000   0.1326   0.00722   0.00120  -0.0522   0.6093   0.2937
  -0.500   0.1879   0.00718   0.00118  -0.0520   0.5749   0.3372
   0.000   0.2429   0.00710   0.00119  -0.0518   0.5429   0.4005
   0.500   0.2973   0.00693   0.00122  -0.0516   0.5135   0.5011
   1.000   0.3513   0.00677   0.00131  -0.0513   0.4849   0.6134
   1.500   0.4060   0.00677   0.00141  -0.0510   0.4579   0.6794
   2.000   0.4602   0.00673   0.00154  -0.0506   0.4346   0.7553
   2.500   0.5125   0.00673   0.00171  -0.0496   0.4073   0.8412
   3.500   0.6162   0.00726   0.00218  -0.0475   0.3230   0.9560
   4.000   0.6813   0.00799   0.00255  -0.0498   0.2462   0.9885
   4.500   0.7495   0.00861   0.00294  -0.0529   0.1963   1.0000
   5.000   0.7960   0.00915   0.00330  -0.0512   0.1605   1.0000
   5.500   0.8432   0.00977   0.00373  -0.0496   0.1234   1.0000
   6.000   0.8905   0.01047   0.00424  -0.0482   0.0888   1.0000
   6.500   0.9395   0.01106   0.00474  -0.0470   0.0714   1.0000
   7.000   0.9886   0.01166   0.00527  -0.0459   0.0580   1.0000
   7.500   1.0375   0.01228   0.00583  -0.0448   0.0481   1.0000
   8.000   1.0858   0.01293   0.00645  -0.0437   0.0413   1.0000
   8.500   1.1340   0.01354   0.00708  -0.0426   0.0377   1.0000
   9.000   1.1807   0.01426   0.00780  -0.0412   0.0342   1.0000
   9.500   1.2271   0.01494   0.00852  -0.0399   0.0319   1.0000
  10.000   1.2708   0.01577   0.00937  -0.0382   0.0294   1.0000
  10.500   1.3143   0.01654   0.01021  -0.0365   0.0279   1.0000
  11.000   1.3556   0.01738   0.01110  -0.0345   0.0261   1.0000
  11.500   1.3907   0.01840   0.01216  -0.0315   0.0240   1.0000
  12.000   1.4250   0.01933   0.01318  -0.0284   0.0228   1.0000
  12.500   1.4564   0.02047   0.01438  -0.0253   0.0209   1.0000
  13.000   1.4849   0.02183   0.01582  -0.0221   0.0192   1.0000
  13.500   1.5116   0.02339   0.01746  -0.0190   0.0174   1.0000
  14.000   1.5345   0.02531   0.01947  -0.0160   0.0158   1.0000
  14.500   1.5549   0.02757   0.02184  -0.0133   0.0144   1.0000
  15.500   1.5838   0.03369   0.02820  -0.0090   0.0121   1.0000
  16.000   1.5920   0.03773   0.03240  -0.0077   0.0112   1.0000
  16.500   1.5941   0.04272   0.03754  -0.0070   0.0105   1.0000
  17.000   1.5936   0.04839   0.04340  -0.0071   0.0100   1.0000
  17.500   1.5883   0.05503   0.05023  -0.0080   0.0096   1.0000
  18.000   1.5765   0.06290   0.05832  -0.0099   0.0093   1.0000
  18.500   1.5580   0.07211   0.06775  -0.0126   0.0090   1.0000
  19.000   1.5323   0.08274   0.07860  -0.0163   0.0087   1.0000
  19.500   1.5000   0.09482   0.09092  -0.0210   0.0085   1.0000
  20.000   1.4618   0.10833   0.10468  -0.0269   0.0084   1.0000

.OPERva   c>  
 XFOIL   c>  